data_functionalizedCrystal
_audit_creation_method	'MofGen! by Chris Wilmer'
_symmetry_space_group_name_H-M	'P1'
_symmetry_Int_Tables_number	1
_symmetry_cell_setting	triclinic
loop_
_symmetry_equiv_pos_as_xyz
  x,y,z
_cell_length_a	14.908783
_cell_length_b	14.909042
_cell_length_c	14.908294
_cell_angle_alpha	90.162579
_cell_angle_beta	89.789087
_cell_angle_gamma	89.820521
loop_
_atom_site_label
_atom_site_type_symbol
_atom_site_fract_x
_atom_site_fract_y
_atom_site_fract_z
Zn1	Zn	1.364396	-0.313455	-0.570870
Zn2	Zn	1.864396	0.186545	-0.070870
Zn3	Zn	1.381548	-0.454223	-0.412893
Zn4	Zn	1.881548	0.045777	0.087107
Zn5	Zn	1.222651	-0.312485	-0.411893
Zn6	Zn	1.722651	0.187515	0.088107
Zn7	Zn	1.223617	-0.471385	-0.553586
Zn8	Zn	1.723617	0.028615	-0.053586
O9	O	1.298053	-0.387887	-0.487310
O10	O	1.798053	0.112113	0.012690
O11	O	1.492086	-0.325352	-0.557565
O12	O	1.992086	0.174648	-0.057565
O13	O	1.367244	-0.427833	-0.287347
O14	O	1.867244	0.072167	0.212653
O15	O	1.233871	-0.187201	-0.439797
O16	O	1.733871	0.312799	0.060203
O17	O	1.504688	-0.428774	-0.441500
O18	O	2.004688	0.071226	0.058500
O19	O	1.338010	-0.187914	-0.556596
O20	O	1.838010	0.312086	-0.056596
O21	O	1.250503	-0.323699	-0.286613
O22	O	1.750503	0.176301	0.213387
O23	O	1.097364	-0.340339	-0.423038
O24	O	1.597364	0.159661	0.076962
O25	O	1.235518	-0.458023	-0.681291
O26	O	1.735518	0.041977	-0.181291
O27	O	1.098074	-0.457082	-0.527139
O28	O	1.598074	0.042918	-0.027139
O29	O	1.338947	-0.341993	-0.693990
O30	O	1.838947	0.158007	-0.193990
O31	O	1.368181	-0.581912	-0.424741
O32	O	1.868181	-0.081912	0.075259
O33	O	1.252150	-0.594520	-0.528108
O34	O	1.752150	-0.094520	-0.028108
C35	C	1.065200	-0.400468	-0.473105
C36	C	1.565200	0.099532	0.026895
C37	C	0.965585	-0.405874	-0.467047
C38	C	1.465585	0.094126	0.032953
C39	C	0.765273	-0.308505	-0.576690
C40	C	1.265273	0.191495	-0.076690
C41	C	0.671676	-0.313581	-0.571002
C42	C	1.171676	0.186419	-0.071002
C43	C	0.684790	-0.421095	-0.449979
C44	C	1.184790	0.078905	0.050021
C45	C	0.778388	-0.416020	-0.455667
C46	C	1.278388	0.083980	0.044333
C47	C	0.818626	-0.359723	-0.519026
C48	C	1.318626	0.140277	-0.019026
C49	C	0.912225	-0.354653	-0.524718
C50	C	1.412225	0.145347	-0.024718
C51	C	0.925338	-0.462163	-0.403691
C52	C	1.425338	0.037837	0.096309
C53	C	0.831740	-0.467238	-0.398003
C54	C	1.331740	0.032762	0.101997
C55	C	1.312155	-0.620734	-0.474678
C56	C	1.812155	-0.120734	0.025322
C57	C	1.318268	-0.720344	-0.469309
C58	C	1.818268	-0.220344	0.030691
C59	C	1.208828	-0.920716	-0.566750
C60	C	1.708828	-0.420716	-0.066750
C61	C	1.214569	-1.014309	-0.561708
C62	C	1.714569	-0.514309	-0.061708
C63	C	1.335486	-1.001125	-0.454180
C64	C	1.835486	-0.501125	0.045820
C65	C	1.329745	-0.907532	-0.459221
C66	C	1.829745	-0.407532	0.040779
C67	C	1.266415	-0.867331	-0.515509
C68	C	1.766415	-0.367331	-0.015509
C69	C	1.260679	-0.773736	-0.520556
C70	C	1.760679	-0.273736	-0.020556
C71	C	1.381591	-0.760554	-0.413023
C72	C	1.881591	-0.260554	0.086977
C73	C	1.387332	-0.854147	-0.407981
C74	C	1.887332	-0.354147	0.092019
C75	C	1.531815	-0.375257	-0.501572
C76	C	2.031815	0.124743	-0.001572
C77	C	1.631430	-0.369875	-0.507650
C78	C	2.131430	0.130125	-0.007650
C79	C	1.285427	-0.402030	-0.721068
C80	C	1.785427	0.097970	-0.221068
C81	C	1.280047	-0.408057	-0.820681
C82	C	1.780047	0.091943	-0.320681
C83	C	1.283919	-0.154130	-0.500013
C84	C	1.783919	0.345870	-0.000013
C85	C	1.277896	-0.054517	-0.505426
C86	C	1.777896	0.445483	-0.005426
C87	C	1.218615	-0.476952	-0.954473
C88	C	1.718615	0.023048	-0.454473
C89	C	1.223669	-0.471295	-0.860877
C90	C	1.723669	0.028705	-0.360877
C91	C	1.331373	-0.350469	-0.874090
C92	C	1.831373	0.149531	-0.374090
C93	C	1.326318	-0.356126	-0.967686
C94	C	1.826318	0.143874	-0.467686
C95	C	1.269939	-0.419370	-1.007874
C96	C	1.769939	0.080630	-0.507874
C97	C	1.264890	-0.425030	-1.101472
C98	C	1.764890	0.074970	-0.601472
C99	C	1.372588	-0.304200	-1.114683
C100	C	1.872588	0.195800	-0.614683
C101	C	1.377642	-0.298544	-1.021087
C102	C	1.877642	0.201456	-0.521087
C103	C	1.310677	-0.373731	-0.254469
C104	C	1.810677	0.126269	0.245531
C105	C	1.316216	-0.367442	-0.154880
C106	C	1.816216	0.132558	0.345120
H107	H	0.628239	-0.271871	-0.617956
H108	H	1.128239	0.228129	-0.117956
H109	H	0.968788	-0.503876	-0.356743
H110	H	1.468788	-0.003876	0.143257
C111	C	1.533967	-0.720785	-0.380326
C112	C	2.033967	-0.220785	0.119674
C113	C	1.444897	-0.701868	-0.356698
C114	C	1.944897	-0.201868	0.143302
H115	H	1.573049	-0.684549	-0.345560
H116	H	2.073049	-0.184549	0.154440
H117	H	1.546442	-0.782271	-0.369260
H118	H	2.046442	-0.282271	0.130740
H119	H	1.542820	-0.708349	-0.442181
H120	H	2.042820	-0.208349	0.057819
H121	H	1.436043	-0.714310	-0.294843
H122	H	1.936043	-0.214310	0.205157
H123	H	1.432418	-0.640367	-0.367756
H124	H	1.932418	-0.140367	0.132244
C125	C	0.889858	-0.248885	-0.643767
C126	C	1.389858	0.251115	-0.143767
C127	C	0.956458	-0.292772	-0.594358
C128	C	1.456458	0.207228	-0.094358
H129	H	0.917165	-0.210677	-0.686756
H130	H	1.417165	0.289323	-0.186756
H131	H	0.853884	-0.292031	-0.673646
H132	H	1.353884	0.207969	-0.173646
H133	H	0.853365	-0.214170	-0.604405
H134	H	1.353365	0.285830	-0.104405
H135	H	0.992947	-0.327493	-0.633720
H136	H	1.492947	0.172507	-0.133720
H137	H	0.992447	-0.249620	-0.564478
H138	H	1.492447	0.250380	-0.064478
C139	C	0.547128	-0.476596	-0.387520
C140	C	1.047128	0.023404	0.112480
C141	C	0.640549	-0.482965	-0.380334
C142	C	1.140549	0.017035	0.119666
H143	H	0.519818	-0.514795	-0.344525
H144	H	1.019818	-0.014795	0.155475
H145	H	0.528851	-0.416409	-0.376837
H146	H	1.028851	0.083591	0.123163
H147	H	0.529360	-0.494279	-0.446068
H148	H	1.029360	0.005721	0.053932
H149	H	0.658318	-0.465276	-0.321787
H150	H	1.158318	0.034724	0.178213
H151	H	0.658833	-0.543165	-0.391010
H152	H	1.158833	-0.043165	0.108990
C153	C	0.814482	-0.617836	-0.344134
C154	C	1.314482	-0.117836	0.155866
C155	C	0.787506	-0.529121	-0.328364
C156	C	1.287506	-0.029121	0.171636
H157	H	0.787179	-0.656040	-0.301139
H158	H	1.287179	-0.156040	0.198861
H159	H	0.796702	-0.635503	-0.402675
H160	H	1.296702	-0.135503	0.097325
H161	H	0.877863	-0.622132	-0.339269
H162	H	1.377863	-0.122132	0.160731
H163	H	0.724126	-0.524823	-0.333237
H164	H	1.224126	-0.024823	0.166763
H165	H	0.805281	-0.511449	-0.269809
H166	H	1.305281	-0.011449	0.230191
C167	C	1.141733	-0.796172	-0.626333
C168	C	1.641733	-0.296172	-0.126333
C169	C	1.191068	-0.729544	-0.582426
C170	C	1.691068	-0.229544	-0.082426
H171	H	1.098754	-0.768890	-0.664525
H172	H	1.598754	-0.268890	-0.164525
H173	H	1.181133	-0.832595	-0.661062
H174	H	1.681133	-0.332595	-0.161062
H175	H	1.111840	-0.832209	-0.583186
H176	H	1.611840	-0.332209	-0.083186
H177	H	1.220966	-0.693511	-0.625573
H178	H	1.720966	-0.193511	-0.125573
H179	H	1.151662	-0.693106	-0.547695
H180	H	1.651662	-0.193106	-0.047695
H181	H	1.414382	-0.257314	-1.158173
H182	H	1.914382	0.242686	-0.658173
H183	H	1.181870	-0.518179	-0.817400
H184	H	1.681870	-0.018179	-0.317400
C185	C	1.094478	-1.017936	-0.668508
C186	C	1.594478	-0.517936	-0.168508
C187	C	1.151272	-1.072991	-0.618039
C188	C	1.651272	-0.572991	-0.118039
H189	H	1.055405	-1.054165	-0.703289
H190	H	1.555405	-0.554165	-0.203289
H191	H	1.060105	-0.980968	-0.629305
H192	H	1.560105	-0.480968	-0.129305
H193	H	1.129411	-0.981345	-0.707169
H194	H	1.629411	-0.481345	-0.207169
H195	H	1.116340	-1.109577	-0.579373
H196	H	1.616340	-0.609577	-0.079373
H197	H	1.185649	-1.109974	-0.657246
H198	H	1.685649	-0.609974	-0.157246
C199	C	1.397828	-1.138748	-0.398556
C200	C	1.897828	-0.638748	0.101444
C201	C	1.404999	-1.045325	-0.392205
C202	C	1.904999	-0.545325	0.107795
H203	H	1.440720	-1.166033	-0.360267
H204	H	1.940720	-0.666033	0.139733
H205	H	1.339242	-1.156545	-0.380978
H206	H	1.839242	-0.656545	0.119022
H207	H	1.408676	-1.157024	-0.458728
H208	H	1.908676	-0.657024	0.041272
H209	H	1.394144	-1.027048	-0.332034
H210	H	1.894144	-0.527048	0.167966
H211	H	1.463599	-1.027521	-0.409777
H212	H	1.963599	-0.527521	0.090223
H213	H	1.157267	-0.887984	-0.612589
H214	H	1.657267	-0.387984	-0.112589
C215	C	1.441081	-0.871429	-0.257378
C216	C	1.941081	-0.371429	0.242622
C217	C	1.456942	-0.898335	-0.346106
C218	C	1.956942	-0.398335	0.153894
H219	H	1.484055	-0.898709	-0.219179
H220	H	1.984055	-0.398709	0.280821
H221	H	1.445903	-0.808055	-0.253062
H222	H	1.945903	-0.308055	0.246938
H223	H	1.382530	-0.889290	-0.239717
H224	H	1.882530	-0.389290	0.260283
H225	H	1.515491	-0.880468	-0.363770
H226	H	2.015491	-0.380468	0.136230
H227	H	1.452128	-0.961722	-0.350426
H228	H	1.952128	-0.461722	0.149574
H229	H	1.172715	-0.528453	-0.987194
H230	H	1.672715	-0.028453	-0.487194
C231	C	1.158930	-0.543884	-1.079007
C232	C	1.658930	-0.043884	-0.579007
C233	C	1.202915	-0.494543	-1.145650
C234	C	1.702915	0.005457	-0.645650
H235	H	1.120664	-0.586794	-1.106280
H236	H	1.620664	-0.086794	-0.606280
H237	H	1.202020	-0.573850	-1.043025
H238	H	1.702020	-0.073850	-0.543025
H239	H	1.124264	-0.504470	-1.042528
H240	H	1.624264	-0.004470	-0.542528
H241	H	1.237588	-0.533956	-1.182125
H242	H	1.737588	-0.033956	-0.682125
H243	H	1.159819	-0.464576	-1.181647
H244	H	1.659819	0.035424	-0.681647
C245	C	1.386963	-0.288181	-0.736474
C246	C	1.886963	0.211819	-0.236474
C247	C	1.393361	-0.280975	-0.829904
C248	C	1.893361	0.219025	-0.329904
H249	H	1.425244	-0.245286	-0.709198
H250	H	1.925244	0.254714	-0.209198
H251	H	1.326792	-0.277370	-0.718177
H252	H	1.826792	0.222630	-0.218177
H253	H	1.404528	-0.346773	-0.718686
H254	H	1.904528	0.153227	-0.218686
H255	H	1.375789	-0.222384	-0.847693
H256	H	1.875789	0.277616	-0.347693
H257	H	1.453545	-0.291779	-0.848208
H258	H	1.953545	0.208221	-0.348208
C259	C	1.483595	-0.179682	-1.043549
C260	C	1.983595	0.320318	-0.543549
C261	C	1.439613	-0.229028	-0.976908
C262	C	1.939613	0.270972	-0.476908
H263	H	1.521850	-0.136763	-1.016274
H264	H	2.021850	0.363237	-0.516274
H265	H	1.518264	-0.219085	-1.080022
H266	H	2.018264	0.280915	-0.580022
H267	H	1.440495	-0.149719	-1.079537
H268	H	1.940495	0.350281	-0.579537
H269	H	1.482713	-0.258997	-0.940924
H270	H	1.982713	0.241003	-0.440924
H271	H	1.404942	-0.189619	-0.940419
H272	H	1.904942	0.310381	-0.440419
H273	H	0.798036	-0.262670	-0.628283
H274	H	1.298036	0.237330	-0.128283
