data_functionalizedCrystal
_audit_creation_method	'MofGen! by Chris Wilmer'
_symmetry_space_group_name_H-M	'P1'
_symmetry_Int_Tables_number	1
_symmetry_cell_setting	triclinic
loop_
_symmetry_equiv_pos_as_xyz
  x,y,z
_cell_length_a	18.215407
_cell_length_b	18.215404
_cell_length_c	18.215399
_cell_angle_alpha	89.972067
_cell_angle_beta	90.019350
_cell_angle_gamma	89.975729
loop_
_atom_site_label
_atom_site_type_symbol
_atom_site_fract_x
_atom_site_fract_y
_atom_site_fract_z
Zn1	Zn	1.125074	0.292980	0.416118
Zn2	Zn	1.375074	0.542980	0.666118
Zn3	Zn	1.625074	0.792980	0.916118
Zn4	Zn	1.875074	1.042980	1.166118
Zn5	Zn	1.124986	0.416052	0.293053
Zn6	Zn	1.374986	0.666052	0.543053
Zn7	Zn	1.624986	0.916052	0.793053
Zn8	Zn	1.874986	1.166052	1.043053
Zn9	Zn	1.002007	0.293005	0.293065
Zn10	Zn	1.252007	0.543005	0.543065
Zn11	Zn	1.502007	0.793005	0.793065
Zn12	Zn	1.752007	1.043005	1.043065
Zn13	Zn	1.001975	0.416010	0.416078
Zn14	Zn	1.251975	0.666010	0.666078
Zn15	Zn	1.501975	0.916010	0.916078
Zn16	Zn	1.751975	1.166010	1.166078
O17	O	1.063510	0.354512	0.354578
O18	O	1.313510	0.604512	0.604578
O19	O	1.563510	0.854512	0.854578
O20	O	1.813510	1.104512	1.104578
O21	O	1.228046	0.309313	0.399805
O22	O	1.478046	0.559313	0.649805
O23	O	1.728046	0.809313	0.899805
O24	O	1.978046	1.059313	1.149805
O25	O	1.108649	0.399758	0.190070
O26	O	1.358649	0.649758	0.440070
O27	O	1.608649	0.899758	0.690070
O28	O	1.858649	1.149758	0.940070
O29	O	1.018383	0.190017	0.309411
O30	O	1.268383	0.440017	0.559411
O31	O	1.518383	0.690017	0.809411
O32	O	1.768383	0.940017	1.059411
O33	O	1.227982	0.399733	0.309389
O34	O	1.477982	0.649733	0.559389
O35	O	1.727982	0.899733	0.809389
O36	O	1.977982	1.149733	1.059389
O37	O	1.108800	0.189999	0.399817
O38	O	1.358800	0.439999	0.649817
O39	O	1.608800	0.689999	0.899817
O40	O	1.858800	0.939999	1.149817
O41	O	1.018298	0.309355	0.190079
O42	O	1.268298	0.559355	0.440079
O43	O	1.518298	0.809355	0.690079
O44	O	1.768298	1.059355	0.940079
O45	O	0.899019	0.309315	0.309372
O46	O	1.149019	0.559315	0.559372
O47	O	1.399019	0.809315	0.809372
O48	O	1.649019	1.059315	1.059372
O49	O	1.018327	0.399662	0.519067
O50	O	1.268327	0.649662	0.769067
O51	O	1.518327	0.899662	1.019067
O52	O	1.768327	1.149662	1.269067
O53	O	0.898995	0.399686	0.399748
O54	O	1.148995	0.649686	0.649748
O55	O	1.398995	0.899686	0.899748
O56	O	1.648995	1.149686	1.149748
O57	O	1.108768	0.309272	0.519097
O58	O	1.358768	0.559272	0.769097
O59	O	1.608768	0.809272	1.019097
O60	O	1.858768	1.059272	1.269097
O61	O	1.108617	0.519031	0.309350
O62	O	1.358617	0.769031	0.559350
O63	O	1.608617	1.019031	0.809350
O64	O	1.858617	1.269031	1.059350
O65	O	1.018242	0.519000	0.399736
O66	O	1.268242	0.769000	0.649736
O67	O	1.518242	1.019000	0.899736
O68	O	1.768242	1.269000	1.149736
C69	C	0.872304	0.354499	0.354557
C70	C	1.122304	0.604499	0.604557
C71	C	1.372304	0.854499	0.854557
C72	C	1.622304	1.104499	1.104557
C73	C	0.790505	0.354512	0.354566
C74	C	1.040505	0.604512	0.604566
C75	C	1.290505	0.854512	0.854566
C76	C	1.540505	1.104512	1.104566
C77	C	0.602318	0.401642	0.401566
C78	C	0.852318	0.651642	0.651566
C79	C	1.102318	0.901642	0.901566
C80	C	1.352318	1.151642	1.151566
C81	C	0.525459	0.401644	0.401575
C82	C	0.775459	0.651644	0.651575
C83	C	1.025459	0.901644	0.901575
C84	C	1.275459	1.151644	1.151575
C85	C	0.525455	0.307395	0.307607
C86	C	0.775455	0.557395	0.557607
C87	C	1.025455	0.807395	0.807607
C88	C	1.275455	1.057395	1.057607
C89	C	0.602312	0.307390	0.307602
C90	C	0.852312	0.557390	0.557602
C91	C	1.102312	0.807390	0.807602
C92	C	1.352312	1.057390	1.057602
C93	C	0.640742	0.354517	0.354581
C94	C	0.890742	0.604517	0.604581
C95	C	1.140742	0.854517	0.854581
C96	C	1.390742	1.104517	1.104581
C97	C	0.487026	0.354525	0.354595
C98	C	0.737026	0.604525	0.604595
C99	C	0.987026	0.854525	0.854595
C100	C	1.237026	1.104525	1.104595
C101	C	0.403692	0.354527	0.354604
C102	C	0.653692	0.604527	0.604604
C103	C	0.903692	0.854527	0.854604
C104	C	1.153692	1.104527	1.104604
C105	C	0.724081	0.354514	0.354572
C106	C	0.974081	0.604514	0.604572
C107	C	1.224081	0.854514	0.854572
C108	C	1.474081	1.104514	1.104572
C109	C	1.063436	0.545718	0.354553
C110	C	1.313436	0.795718	0.604553
C111	C	1.563436	1.045718	0.854553
C112	C	1.813436	1.295718	1.104553
C113	C	1.063472	0.627517	0.354567
C114	C	1.313472	0.877517	0.604567
C115	C	1.563472	1.127517	0.854567
C116	C	1.813472	1.377517	1.104567
C117	C	1.110644	0.815702	0.307600
C118	C	1.360644	1.065702	0.557600
C119	C	1.610644	1.315702	0.807600
C120	C	1.860644	1.565702	1.057600
C121	C	1.110679	0.892561	0.307622
C122	C	1.360679	1.142561	0.557622
C123	C	1.610679	1.392561	0.807622
C124	C	1.860679	1.642561	1.057622
C125	C	1.016489	0.892569	0.401663
C126	C	1.266489	1.142569	0.651663
C127	C	1.516489	1.392569	0.901663
C128	C	1.766489	1.642569	1.151663
C129	C	1.016459	0.815712	0.401644
C130	C	1.266459	1.065712	0.651644
C131	C	1.516459	1.315712	0.901644
C132	C	1.766459	1.565712	1.151644
C133	C	1.063536	0.777280	0.354609
C134	C	1.313536	1.027280	0.604609
C135	C	1.563536	1.277280	0.854609
C136	C	1.813536	1.527280	1.104609
C137	C	1.063600	0.930997	0.354649
C138	C	1.313600	1.180997	0.604649
C139	C	1.563600	1.430997	0.854649
C140	C	1.813600	1.680997	1.104649
C141	C	1.063637	1.014330	0.354673
C142	C	1.313637	1.264330	0.604673
C143	C	1.563637	1.514330	0.854673
C144	C	1.813637	1.764330	1.104673
C145	C	1.063500	0.693942	0.354585
C146	C	1.313500	0.943942	0.604585
C147	C	1.563500	1.193942	0.854585
C148	C	1.813500	1.443942	1.104585
C149	C	1.255463	0.354525	0.354600
C150	C	1.505463	0.604525	0.604600
C151	C	1.755463	0.854525	0.854600
C152	C	2.005463	1.104525	1.104600
C153	C	1.337262	0.354531	0.354609
C154	C	1.587262	0.604531	0.604609
C155	C	1.837262	0.854531	0.854609
C156	C	2.087262	1.104531	1.104609
C157	C	1.063554	0.354460	0.546531
C158	C	1.313554	0.604460	0.796531
C159	C	1.563554	0.854460	1.046531
C160	C	1.813554	1.104460	1.296531
C161	C	1.063572	0.354437	0.628330
C162	C	1.313572	0.604437	0.878330
C163	C	1.563572	0.854437	1.128330
C164	C	1.813572	1.104437	1.378330
C165	C	1.063610	1.162559	0.354633
C166	C	1.313610	1.412559	0.604633
C167	C	1.563610	1.662559	0.854633
C168	C	1.813610	1.912559	1.104633
C169	C	1.063664	1.080760	0.354691
C170	C	1.313664	1.330760	0.604691
C171	C	1.563664	1.580760	0.854691
C172	C	1.813664	1.830760	1.104691
C173	C	1.063510	0.354511	0.163372
C174	C	1.313510	0.604511	0.413372
C175	C	1.563510	0.854511	0.663372
C176	C	1.813510	1.104511	0.913372
C177	C	1.063634	0.354326	0.081574
C178	C	1.313634	0.604326	0.331574
C179	C	1.563634	0.854326	0.581574
C180	C	1.813634	1.104326	0.831574
C181	C	1.110692	0.307308	0.893405
C182	C	1.360692	0.557308	1.143405
C183	C	1.610692	0.807308	1.393405
C184	C	1.860692	1.057308	1.643405
C185	C	1.110683	0.307328	0.816546
C186	C	1.360683	0.557328	1.066546
C187	C	1.610683	0.807328	1.316546
C188	C	1.860683	1.057328	1.566546
C189	C	1.016512	0.401460	0.816505
C190	C	1.266512	0.651460	1.066505
C191	C	1.516512	0.901460	1.316505
C192	C	1.766512	1.151460	1.566505
C193	C	1.016525	0.401444	0.893362
C194	C	1.266525	0.651444	1.143362
C195	C	1.516525	0.901444	1.393362
C196	C	1.766525	1.151444	1.643362
C197	C	1.063614	0.354363	0.931810
C198	C	1.313614	0.604363	1.181810
C199	C	1.563614	0.854363	1.431810
C200	C	1.813614	1.104363	1.681810
C201	C	1.063592	0.354400	0.778094
C202	C	1.313592	0.604400	1.028094
C203	C	1.563592	0.854400	1.278094
C204	C	1.813592	1.104400	1.528094
C205	C	1.063582	0.354422	0.694760
C206	C	1.313582	0.604422	0.944760
C207	C	1.563582	0.854422	1.194760
C208	C	1.813582	1.104422	1.444760
C209	C	1.063625	0.354342	1.015149
C210	C	1.313625	0.604342	1.265149
C211	C	1.563625	0.854342	1.515149
C212	C	1.813625	1.104342	1.765149
H213	H	0.494178	0.440017	0.439836
H214	H	0.744178	0.690017	0.689836
H215	H	0.994178	0.940017	0.939836
H216	H	1.244178	1.190017	1.189836
F217	F	1.160820	0.933449	0.257590
F218	F	1.410820	1.183449	0.507590
F219	F	1.660820	1.433449	0.757590
F220	F	1.910820	1.683449	1.007590
H221	H	0.978097	0.784427	0.439928
H222	H	1.228097	1.034427	0.689928
H223	H	1.478097	1.284427	0.939928
H224	H	1.728097	1.534427	1.189928
H225	H	0.633605	0.440015	0.439820
H226	H	0.883605	0.690015	0.689820
H227	H	1.133605	0.940015	0.939820
H228	H	1.383605	1.190015	1.189820
H229	H	0.494156	0.269026	0.269358
H230	H	0.744156	0.519026	0.519358
H231	H	0.994156	0.769026	0.769358
H232	H	1.244156	1.019026	1.019358
H233	H	1.148978	0.784414	0.269301
H234	H	1.398978	1.034414	0.519301
H235	H	1.648978	1.284414	0.769301
H236	H	1.898978	1.534414	1.019301
H237	H	0.978173	0.439790	0.785191
H238	H	1.228173	0.689790	1.035191
H239	H	1.478173	0.939790	1.285191
H240	H	1.728173	1.189790	1.535191
F241	F	0.966388	0.933477	0.451718
F242	F	1.216388	1.183477	0.701718
F243	F	1.466388	1.433477	0.951718
F244	F	1.716388	1.683477	1.201718
F245	F	0.966420	0.451533	0.934238
F246	F	1.216420	0.701533	1.184238
F247	F	1.466420	0.951533	1.434238
F248	F	1.716420	1.201533	1.684238
F249	F	1.160806	0.257200	0.934322
F250	F	1.410806	0.507200	1.184322
F251	F	1.660806	0.757200	1.434322
F252	F	1.910806	1.007200	1.684322
H253	H	0.633598	0.269010	0.269341
H254	H	0.883598	0.519010	0.519341
H255	H	1.133598	0.769010	0.769341
H256	H	1.383598	1.019010	1.019341
F257	F	1.160791	0.257247	0.775676
F258	F	1.410791	0.507247	1.025676
F259	F	1.660791	0.757247	1.275676
F260	F	1.910791	1.007247	1.525676
