data_functionalizedCrystal
_audit_creation_method	'MofGen! by Chris Wilmer'
_symmetry_space_group_name_H-M	'P1'
_symmetry_Int_Tables_number	1
_symmetry_cell_setting	triclinic
loop_
_symmetry_equiv_pos_as_xyz
  x,y,z
_cell_length_a	12.759401
_cell_length_b	12.759399
_cell_length_c	12.759393
_cell_angle_alpha	89.967969
_cell_angle_beta	89.980163
_cell_angle_gamma	90.016641
loop_
_atom_site_label
_atom_site_type_symbol
_atom_site_fract_x
_atom_site_fract_y
_atom_site_fract_z
Zn1	Zn	1.606252	-0.418161	-0.594017
Zn2	Zn	1.606145	-0.593880	-0.418336
Zn3	Zn	1.430554	-0.418220	-0.418352
Zn4	Zn	1.430541	-0.593803	-0.593973
O5	O	1.518373	-0.506016	-0.506170
O6	O	1.753259	-0.441478	-0.570724
O7	O	1.582813	-0.570635	-0.271317
O8	O	1.453911	-0.271191	-0.441680
O9	O	1.753180	-0.570578	-0.441652
O10	O	1.582995	-0.271148	-0.570740
O11	O	1.453807	-0.441579	-0.271329
O12	O	1.283531	-0.441505	-0.441637
O13	O	1.453889	-0.570447	-0.741000
O14	O	1.283522	-0.570504	-0.570665
O15	O	1.582983	-0.441403	-0.741032
O16	O	1.582801	-0.740891	-0.441609
O17	O	1.453785	-0.740834	-0.570649
C18	C	1.245406	-0.506003	-0.506149
C19	C	1.128629	-0.506023	-0.506165
C20	C	1.518309	-0.778984	-0.506146
C21	C	1.518377	-0.895760	-0.506171
C22	C	1.073790	-0.573296	-0.573244
C23	C	0.964066	-0.573300	-0.573265
C24	C	0.964030	-0.438756	-0.439118
C25	C	1.073752	-0.438747	-0.439104
C26	C	1.585632	-0.950617	-0.439056
C27	C	1.585700	-1.060341	-0.439091
C28	C	1.451248	-1.060342	-0.573359
C29	C	1.451187	-0.950620	-0.573328
C30	C	1.792406	-0.506030	-0.506191
C31	C	1.909183	-0.506036	-0.506200
C32	C	1.518446	-0.505910	-0.780203
C33	C	1.518478	-0.505865	-0.896980
C34	C	1.518466	-0.231983	-0.506217
C35	C	1.518506	-0.115206	-0.506237
C36	C	1.451328	-0.438653	-0.951848
C37	C	1.451353	-0.438620	-1.061572
C38	C	1.585685	-0.573015	-1.061551
C39	C	1.585654	-0.573052	-0.951829
C40	C	1.518360	-0.506046	-0.233202
C41	C	1.518533	-0.505796	-0.116426
H42	H	1.118467	-0.628073	-0.627852
H43	H	0.919336	-0.383984	-0.384518
H44	H	1.640379	-0.627715	-1.106222
H45	H	1.396672	-0.383891	-1.106240
H46	H	1.396543	-1.105022	-0.628034
H47	H	1.396629	-0.383945	-0.907193
H48	H	1.640467	-1.105000	-0.384441
H49	H	1.118403	-0.383959	-0.384480
H50	H	1.396420	-0.905953	-0.627986
H51	H	0.919420	-0.628078	-0.627889
H52	H	1.640344	-0.905952	-0.384374
H53	H	1.640338	-0.627788	-0.907154
