data_functionalizedCrystal
_audit_creation_method	'MofGen! by Chris Wilmer'
_symmetry_space_group_name_H-M	'P1'
_symmetry_Int_Tables_number	1
_symmetry_cell_setting	triclinic
loop_
_symmetry_equiv_pos_as_xyz
  x,y,z
_cell_length_a	19.805407
_cell_length_b	13.032721
_cell_length_c	13.032268
_cell_angle_alpha	103.289627
_cell_angle_beta	97.161370
_cell_angle_gamma	97.204665
loop_
_atom_site_label
_atom_site_type_symbol
_atom_site_fract_x
_atom_site_fract_y
_atom_site_fract_z
Zn1	Zn	0.939872	-0.499088	-0.654244
Zn2	Zn	1.439872	0.000912	-0.154244
Zn3	Zn	0.939799	-0.654172	-0.499191
Zn4	Zn	1.439799	-0.154172	0.000809
Zn5	Zn	0.843151	-0.476582	-0.476659
Zn6	Zn	1.343151	0.023418	0.023341
Zn7	Zn	0.810205	-0.676645	-0.676728
Zn8	Zn	1.310205	-0.176645	-0.176728
O9	O	0.883257	-0.576622	-0.576705
O10	O	1.383257	-0.076622	-0.076705
O11	O	1.034576	-0.519674	-0.633696
O12	O	1.534576	-0.019674	-0.133696
O13	O	0.940735	-0.611791	-0.347583
O14	O	1.440735	-0.111791	0.152417
O15	O	0.869800	-0.330937	-0.481376
O16	O	1.369800	0.169063	0.018624
O17	O	1.034522	-0.633614	-0.519780
O18	O	1.534522	-0.133614	-0.019780
O19	O	0.940861	-0.347472	-0.611847
O20	O	1.440861	0.152528	-0.111847
O21	O	0.869728	-0.481316	-0.331029
O22	O	1.369728	0.018684	0.168971
O23	O	0.744067	-0.503107	-0.503178
O24	O	1.244067	-0.003107	-0.003178
O25	O	0.813649	-0.671916	-0.822364
O26	O	1.313649	-0.171916	-0.322364
O27	O	0.719862	-0.650093	-0.650168
O28	O	1.219862	-0.150093	-0.150168
O29	O	0.908915	-0.541465	-0.805845
O30	O	1.408915	-0.041465	-0.305845
O31	O	0.908789	-0.805784	-0.541582
O32	O	1.408789	-0.305784	-0.041582
O33	O	0.813577	-0.822295	-0.672017
O34	O	1.313577	-0.322295	-0.172017
C35	C	0.707406	-0.576597	-0.576668
C36	C	1.207406	-0.076597	-0.076668
C37	C	0.632171	-0.576616	-0.576681
C38	C	1.132171	-0.076616	-0.076681
C39	C	0.584242	-0.653239	-0.653122
C40	C	1.084242	-0.153239	-0.153122
C41	C	0.513552	-0.653243	-0.653137
C42	C	1.013552	-0.153243	-0.153137
C43	C	0.490793	-0.576627	-0.576706
C44	C	0.990793	-0.076627	-0.076706
C45	C	0.538728	-0.499995	-0.500262
C46	C	1.038728	0.000005	-0.000262
C47	C	0.609416	-0.499988	-0.500252
C48	C	1.109416	0.000012	-0.000252
C49	C	0.253649	-0.500023	-0.500300
C50	C	0.753649	-0.000023	-0.000300
C51	C	0.182955	-0.500039	-0.500313
C52	C	0.682955	-0.000039	-0.000313
C53	C	0.157785	-0.653278	-0.653185
C54	C	0.657785	-0.153278	-0.153185
C55	C	0.228473	-0.653271	-0.653175
C56	C	0.728473	-0.153271	-0.153175
C57	C	0.276402	-0.576637	-0.576735
C58	C	0.776402	-0.076637	-0.076735
C59	C	0.353052	-0.576632	-0.576720
C60	C	0.853052	-0.076632	-0.076720
C61	C	0.414144	-0.576635	-0.576715
C62	C	0.914144	-0.076635	-0.076715
C63	C	0.857616	-0.852580	-0.611707
C64	C	1.357616	-0.352580	-0.111707
C65	C	0.846706	-0.970641	-0.626716
C66	C	1.346706	-0.470641	-0.126716
C67	C	0.888982	-1.015079	-0.568920
C68	C	1.388982	-0.515079	-0.068920
C69	C	0.877707	-1.137100	-0.584431
C70	C	1.377707	-0.637100	-0.084431
C71	C	1.059794	-0.576648	-0.576743
C72	C	1.559794	-0.076648	-0.076743
C73	C	1.135024	-0.576659	-0.576759
C74	C	1.635024	-0.076659	-0.076759
C75	C	0.857615	-0.611708	-0.853718
C76	C	1.357615	-0.111708	-0.353718
C77	C	0.846688	-0.626659	-0.971764
C78	C	1.346688	-0.126659	-0.471764
C79	C	0.909013	-0.299589	-0.541590
C80	C	1.409013	0.200411	-0.041590
C81	C	0.919990	-0.181534	-0.526626
C82	C	1.419990	0.318466	-0.026626
C83	C	0.888953	-0.568781	-1.016219
C84	C	1.388953	-0.068781	-0.516219
C85	C	0.877660	-0.584232	-1.138226
C86	C	1.377660	-0.084232	-0.638226
C87	C	0.908844	-0.541596	-0.300761
C88	C	1.408844	-0.041596	0.199239
C89	C	0.919930	-0.526346	-0.182678
C90	C	1.419930	-0.026346	0.317322
H91	H	0.474530	-0.715639	-0.715381
H92	H	0.974530	-0.215639	-0.215381
C93	C	0.584562	-0.728013	-0.839467
C94	C	1.084562	-0.228013	-0.339467
C95	C	0.609257	-0.737456	-0.737140
C96	C	1.109257	-0.237456	-0.237140
H97	H	0.600008	-0.780001	-0.891337
H98	H	1.100008	-0.280001	-0.391337
H99	H	0.535609	-0.738986	-0.850405
H100	H	1.035609	-0.238986	-0.350405
H101	H	0.601332	-0.658650	-0.846059
H102	H	1.101332	-0.158650	-0.346059
H103	H	0.592483	-0.806816	-0.730545
H104	H	1.092483	-0.306816	-0.230545
H105	H	0.658220	-0.726491	-0.726198
H106	H	1.158220	-0.226491	-0.226198
H107	H	0.964474	-0.465344	-1.130417
H108	H	1.464474	0.034656	-0.630417
H109	H	0.246999	-0.715663	-0.715410
H110	H	0.746999	-0.215663	-0.215410
H111	H	0.833164	-1.189389	-0.645405
H112	H	1.333164	-0.689389	-0.145405
H113	H	0.964537	-1.129248	-0.465660
H114	H	1.464537	-0.629248	0.034340
C115	C	0.441545	-0.431961	-0.432396
C116	C	0.941545	0.068039	0.067604
C117	C	0.513713	-0.415773	-0.416250
C118	C	1.013713	0.084227	0.083750
H119	H	0.426105	-0.379967	-0.380524
H120	H	0.926105	0.120033	0.119476
H121	H	0.424801	-0.425571	-0.501816
H122	H	0.924801	0.074429	-0.001816
H123	H	0.424788	-0.501320	-0.425779
H124	H	0.924788	-0.001320	0.074221
H125	H	0.530470	-0.346417	-0.422874
H126	H	1.030470	0.153583	0.077126
H127	H	0.530464	-0.422153	-0.346812
H128	H	1.030464	0.077847	0.153188
H129	H	0.833109	-0.645221	-1.190487
H130	H	1.333109	-0.145221	-0.690487
C131	C	0.787042	-1.148440	-0.708455
C132	C	1.287042	-0.648440	-0.208455
C133	C	0.786573	-1.041222	-0.709021
C134	C	1.286573	-0.541222	-0.209021
H135	H	0.749914	-1.192009	-0.759264
H136	H	1.249914	-0.692009	-0.259264
H137	H	0.829404	-1.168469	-0.726347
H138	H	1.329404	-0.668469	-0.226347
H139	H	0.782114	-1.157556	-0.639371
H140	H	1.282114	-0.657556	-0.139371
H141	H	0.791506	-1.032105	-0.778103
H142	H	1.291506	-0.532105	-0.278103
H143	H	0.744200	-1.021187	-0.691135
H144	H	1.244200	-0.521187	-0.191135
H145	H	0.933527	-0.962790	-0.507958
H146	H	1.433527	-0.462790	-0.007958
C147	C	0.787012	-0.708378	-1.149520
C148	C	1.287012	-0.208378	-0.649520
C149	C	0.786557	-0.709005	-1.042310
C150	C	1.286557	-0.209005	-0.542310
H151	H	0.749891	-0.759223	-1.193070
H152	H	1.249891	-0.259223	-0.693070
H153	H	0.782069	-0.639302	-1.158593
H154	H	1.282069	-0.139302	-0.658593
H155	H	0.829382	-0.726201	-1.169610
H156	H	1.329382	-0.226201	-0.669610
H157	H	0.744188	-0.691174	-1.022218
H158	H	1.244188	-0.191174	-0.522218
H159	H	0.791494	-0.778096	-1.033232
H160	H	1.291494	-0.278096	-0.533232
H161	H	0.933494	-0.507786	-0.963954
H162	H	1.433494	-0.007786	-0.463954
H163	H	0.164428	-0.437642	-0.438073
H164	H	0.664428	0.062358	0.061927
C165	C	0.063701	-0.686361	-0.797947
C166	C	0.563701	-0.186361	-0.297947
C167	C	0.105098	-0.737508	-0.737223
C168	C	0.605098	-0.237508	-0.237223
H169	H	0.031179	-0.738362	-0.849828
H170	H	0.531179	-0.238362	-0.349828
H171	H	0.040032	-0.640743	-0.752432
H172	H	0.540032	-0.140743	-0.252432
H173	H	0.091818	-0.645304	-0.832776
H174	H	0.591818	-0.145304	-0.332776
H175	H	0.076981	-0.778559	-0.702386
H176	H	0.576981	-0.278559	-0.202386
H177	H	0.128768	-0.783145	-0.782744
H178	H	0.628768	-0.283145	-0.282744
C179	C	0.271418	-0.348550	-0.349193
C180	C	0.771418	0.151450	0.150807
C181	C	0.306326	-0.415789	-0.416276
C182	C	0.806326	0.084211	0.083724
H183	H	0.303943	-0.296548	-0.297316
H184	H	0.803943	0.203452	0.202684
H185	H	0.243329	-0.313877	-0.390396
H186	H	0.743329	0.186123	0.109604
H187	H	0.243317	-0.389624	-0.314359
H188	H	0.743317	0.110376	0.185641
H189	H	0.334424	-0.374716	-0.451117
H190	H	0.834424	0.125284	0.048883
H191	H	0.334428	-0.450465	-0.375068
H192	H	0.834428	0.049535	0.124932
H193	H	0.648441	-0.437588	-0.438011
H194	H	1.148441	0.062412	0.061989
