data_functionalizedCrystal
_audit_creation_method	'MofGen! by Chris Wilmer'
_symmetry_space_group_name_H-M	'P1'
_symmetry_Int_Tables_number	1
_symmetry_cell_setting	triclinic
loop_
_symmetry_equiv_pos_as_xyz
  x,y,z
_cell_length_a	17.077404
_cell_length_b	19.076808
_cell_length_c	17.077404
_cell_angle_alpha	92.314943
_cell_angle_beta	90.005736
_cell_angle_gamma	92.323651
loop_
_atom_site_label
_atom_site_type_symbol
_atom_site_fract_x
_atom_site_fract_y
_atom_site_fract_z
Zn1	Zn	1.187377	-0.280314	0.431267
Zn2	Zn	1.437377	-0.030314	0.681267
Zn3	Zn	1.687377	0.219686	0.931267
Zn4	Zn	1.937377	0.469686	1.181267
Zn5	Zn	1.182038	-0.397992	0.294721
Zn6	Zn	1.432038	-0.147992	0.544721
Zn7	Zn	1.682038	0.102008	0.794721
Zn8	Zn	1.932038	0.352008	1.044721
Zn9	Zn	1.056141	-0.280308	0.300015
Zn10	Zn	1.306141	-0.030308	0.550015
Zn11	Zn	1.556141	0.219692	0.800015
Zn12	Zn	1.806141	0.469692	1.050015
Zn13	Zn	1.050800	-0.397981	0.425945
Zn14	Zn	1.300800	-0.147981	0.675945
Zn15	Zn	1.550800	0.102019	0.925945
Zn16	Zn	1.800800	0.352019	1.175945
O17	O	1.119089	-0.339149	0.362987
O18	O	1.369089	-0.089149	0.612987
O19	O	1.619089	0.160851	0.862987
O20	O	1.869089	0.410851	1.112987
O21	O	1.296515	-0.295931	0.413165
O22	O	1.546515	-0.045931	0.663165
O23	O	1.796515	0.204069	0.913165
O24	O	2.046515	0.454069	1.163165
O25	O	1.165339	-0.382383	0.185576
O26	O	1.415339	-0.132383	0.435576
O27	O	1.665339	0.117617	0.685576
O28	O	1.915339	0.367617	0.935576
O29	O	1.078019	-0.181813	0.321868
O30	O	1.328019	0.068187	0.571868
O31	O	1.578019	0.318187	0.821868
O32	O	1.828019	0.568187	1.071868
O33	O	1.292593	-0.382389	0.312846
O34	O	1.542593	-0.132389	0.562846
O35	O	1.792593	0.117611	0.812846
O36	O	2.042593	0.367611	1.062846
O37	O	1.174438	-0.181818	0.418298
O38	O	1.424438	0.068182	0.668298
O39	O	1.674438	0.318182	0.918298
O40	O	1.924438	0.568182	1.168298
O41	O	1.072842	-0.295921	0.189466
O42	O	1.322842	-0.045921	0.439466
O43	O	1.572842	0.204079	0.689466
O44	O	1.822842	0.454079	0.939466
O45	O	0.945586	-0.295910	0.316708
O46	O	1.195586	-0.045910	0.566708
O47	O	1.445586	0.204090	0.816708
O48	O	1.695586	0.454090	1.066708
O49	O	1.068916	-0.382370	0.536498
O50	O	1.318916	-0.132370	0.786498
O51	O	1.568916	0.117630	1.036498
O52	O	1.818916	0.367630	1.286498
O53	O	0.941662	-0.382364	0.409229
O54	O	1.191662	-0.132364	0.659229
O55	O	1.441662	0.117636	0.909229
O56	O	1.691662	0.367636	1.159229
O57	O	1.169259	-0.295921	0.540408
O58	O	1.419259	-0.045921	0.790408
O59	O	1.669259	0.204079	1.040408
O60	O	1.919259	0.454079	1.290408
O61	O	1.160160	-0.496486	0.307686
O62	O	1.410160	-0.246486	0.557686
O63	O	1.660160	0.003514	0.807686
O64	O	1.910160	0.253514	1.057686
O65	O	1.063740	-0.496478	0.404096
O66	O	1.313740	-0.246478	0.654096
O67	O	1.563740	0.003522	0.904096
O68	O	1.813740	0.253522	1.154096
C69	C	0.915142	-0.339136	0.362966
C70	C	1.165142	-0.089136	0.612966
C71	C	1.415142	0.160864	0.862966
C72	C	1.665142	0.410864	1.112966
C73	C	0.827891	-0.339148	0.362975
C74	C	1.077891	-0.089148	0.612975
C75	C	1.327891	0.160852	0.862975
C76	C	1.577891	0.410852	1.112975
C77	C	0.784876	-0.384232	0.411067
C78	C	1.034876	-0.134232	0.661067
C79	C	1.284876	0.115768	0.911067
C80	C	1.534876	0.365768	1.161067
C81	C	0.702895	-0.384234	0.411079
C82	C	0.952895	-0.134234	0.661079
C83	C	1.202895	0.115766	0.911079
C84	C	1.452895	0.365766	1.161079
C85	C	0.663932	-0.339154	0.362995
C86	C	0.913932	-0.089154	0.612995
C87	C	1.163932	0.160846	0.862995
C88	C	1.413932	0.410846	1.112995
C89	C	0.706953	-0.294064	0.314901
C90	C	0.956953	-0.044064	0.564901
C91	C	1.206953	0.205936	0.814901
C92	C	1.456953	0.455936	1.064901
C93	C	0.788933	-0.294060	0.314893
C94	C	1.038933	-0.044060	0.564893
C95	C	1.288933	0.205940	0.814893
C96	C	1.538933	0.455940	1.064893
C97	C	0.536083	-0.294078	0.314919
C98	C	0.786083	-0.044078	0.564919
C99	C	1.036083	0.205922	0.814919
C100	C	1.286083	0.455922	1.064919
C101	C	0.454098	-0.294083	0.314926
C102	C	0.704098	-0.044083	0.564926
C103	C	0.954098	0.205917	0.814926
C104	C	1.204098	0.455917	1.064926
C105	C	0.450045	-0.384252	0.411105
C106	C	0.700045	-0.134252	0.661105
C107	C	0.950045	0.115748	0.911105
C108	C	1.200045	0.365748	1.161105
C109	C	0.532024	-0.384248	0.411097
C110	C	0.782024	-0.134248	0.661097
C111	C	1.032024	0.115752	0.911097
C112	C	1.282024	0.365752	1.161097
C113	C	0.575040	-0.339159	0.363002
C114	C	0.825040	-0.089159	0.613002
C115	C	1.075040	0.160841	0.863002
C116	C	1.325040	0.410841	1.113002
C117	C	1.110812	-0.522021	0.354756
C118	C	1.360812	-0.272021	0.604756
C119	C	1.610812	-0.022021	0.854756
C120	C	1.860812	0.227979	1.104756
C121	C	1.107343	-0.600255	0.351261
C122	C	1.357343	-0.350255	0.601261
C123	C	1.607343	-0.100255	0.851261
C124	C	1.857343	0.149745	1.101261
C125	C	1.155876	-0.636951	0.399866
C126	C	1.405876	-0.386951	0.649866
C127	C	1.655876	-0.136951	0.899866
C128	C	1.905876	0.113049	1.149866
C129	C	1.152613	-0.710459	0.396583
C130	C	1.402613	-0.460459	0.646583
C131	C	1.652613	-0.210459	0.896583
C132	C	1.902613	0.039541	1.146583
C133	C	1.100821	-0.747271	0.344692
C134	C	1.350821	-0.497271	0.594692
C135	C	1.600821	-0.247271	0.844692
C136	C	1.850821	0.002729	1.094692
C137	C	1.052283	-0.710569	0.296085
C138	C	1.302283	-0.460569	0.546085
C139	C	1.552283	-0.210569	0.796085
C140	C	1.802283	0.039431	1.046085
C141	C	1.055542	-0.637062	0.299372
C142	C	1.305542	-0.387062	0.549372
C143	C	1.555542	-0.137062	0.799372
C144	C	1.805542	0.112938	1.049372
C145	C	1.085691	-0.967120	0.329476
C146	C	1.335691	-0.717120	0.579476
C147	C	1.585691	-0.467120	0.829476
C148	C	1.835691	-0.217120	1.079476
C149	C	1.082437	-1.040633	0.326191
C150	C	1.332437	-0.790633	0.576191
C151	C	1.582437	-0.540633	0.826191
C152	C	1.832437	-0.290633	1.076191
C153	C	1.182766	-1.040518	0.426691
C154	C	1.432766	-0.790518	0.676691
C155	C	1.682766	-0.540518	0.926691
C156	C	1.932766	-0.290518	1.176691
C157	C	1.186024	-0.967009	0.429970
C158	C	1.436024	-0.717009	0.679970
C159	C	1.686024	-0.467009	0.929970
C160	C	1.936024	-0.217009	1.179970
C161	C	1.137483	-0.930314	0.381366
C162	C	1.387483	-0.680314	0.631366
C163	C	1.637483	-0.430314	0.881366
C164	C	1.887483	-0.180314	1.131366
N165	N	1.097487	-0.822408	0.341333
N166	N	1.347487	-0.572408	0.591333
N167	N	1.597487	-0.322408	0.841333
N168	N	1.847487	-0.072408	1.091333
N169	N	1.140814	-0.855178	0.384729
N170	N	1.390814	-0.605178	0.634729
N171	N	1.640814	-0.355178	0.884729
N172	N	1.890814	-0.105178	1.134729
C173	C	1.323833	-0.339162	0.363009
C174	C	1.573833	-0.089162	0.613009
C175	C	1.823833	0.160838	0.863009
C176	C	2.073833	0.410838	1.113009
C177	C	1.411082	-0.339168	0.363018
C178	C	1.661082	-0.089168	0.613018
C179	C	1.911082	0.160832	0.863018
C180	C	2.161082	0.410832	1.113018
C181	C	1.119087	-0.339145	0.567731
C182	C	1.369087	-0.089145	0.817731
C183	C	1.619087	0.160855	1.067731
C184	C	1.869087	0.410855	1.317731
C185	C	1.119087	-0.339143	0.654981
C186	C	1.369087	-0.089143	0.904981
C187	C	1.619087	0.160857	1.154981
C188	C	1.869087	0.410857	1.404981
C189	C	1.127420	-0.155562	0.371267
C190	C	1.377420	0.094438	0.621267
C191	C	1.627420	0.344438	0.871267
C192	C	1.877420	0.594438	1.121267
C193	C	1.130969	-0.077329	0.374796
C194	C	1.380969	0.172671	0.624796
C195	C	1.630969	0.422671	0.874796
C196	C	1.880969	0.672671	1.124796
C197	C	1.167246	-0.384180	1.028772
C198	C	1.417246	-0.134180	1.278772
C199	C	1.667246	0.115820	1.528772
C200	C	1.917246	0.365820	1.778772
C201	C	1.167242	-0.384179	0.946792
C202	C	1.417242	-0.134179	1.196792
C203	C	1.667242	0.115821	1.446792
C204	C	1.917242	0.365821	1.696792
C205	C	1.119087	-0.339159	0.907829
C206	C	1.369087	-0.089159	1.157829
C207	C	1.619087	0.160841	1.407829
C208	C	1.869087	0.410841	1.657829
C209	C	1.070925	-0.294142	0.950852
C210	C	1.320925	-0.044142	1.200852
C211	C	1.570925	0.205858	1.450852
C212	C	1.820925	0.455858	1.700852
C213	C	1.070925	-0.294147	1.032830
C214	C	1.320925	-0.044147	1.282830
C215	C	1.570925	0.205853	1.532830
C216	C	1.820925	0.455853	1.782830
C217	C	1.070930	-0.294134	0.779982
C218	C	1.320930	-0.044134	1.029982
C219	C	1.570930	0.205866	1.279982
C220	C	1.820930	0.455866	1.529982
C221	C	1.070931	-0.294128	0.697998
C222	C	1.320931	-0.044128	0.947998
C223	C	1.570931	0.205872	1.197998
C224	C	1.820931	0.455872	1.447998
C225	C	1.167247	-0.384166	0.693943
C226	C	1.417247	-0.134166	0.943943
C227	C	1.667247	0.115834	1.193943
C228	C	1.917247	0.365834	1.443943
C229	C	1.167247	-0.384171	0.775922
C230	C	1.417247	-0.134171	1.025922
C231	C	1.667247	0.115829	1.275922
C232	C	1.917247	0.365829	1.525922
C233	C	1.119087	-0.339153	0.818939
C234	C	1.369087	-0.089153	1.068939
C235	C	1.619087	0.160847	1.318939
C236	C	1.869087	0.410847	1.568939
C237	C	1.119085	-0.339167	1.159038
C238	C	1.369085	-0.089167	1.409038
C239	C	1.619085	0.160833	1.659038
C240	C	1.869085	0.410833	1.909038
C241	C	1.119090	-0.339165	1.071789
C242	C	1.369090	-0.089165	1.321789
C243	C	1.619090	0.160835	1.571789
C244	C	1.869090	0.410835	1.821789
H245	H	0.563746	-0.420960	0.450247
H246	H	0.813746	-0.170960	0.700247
H247	H	1.063746	0.079040	0.950247
H248	H	1.313746	0.329040	1.200247
H249	H	1.206464	-0.420827	0.807643
H250	H	1.456464	-0.170827	1.057643
H251	H	1.706464	0.079173	1.307643
H252	H	1.956464	0.329173	1.557643
H253	H	0.675223	-0.257356	0.275754
H254	H	0.925223	-0.007356	0.525754
H255	H	1.175223	0.242644	0.775754
H256	H	1.425223	0.492644	1.025754
F257	F	0.826336	-0.432217	0.462241
F258	F	1.076336	-0.182217	0.712241
F259	F	1.326336	0.067783	0.962241
F260	F	1.576336	0.317783	1.212241
H261	H	1.228197	-0.937039	0.472224
H262	H	1.478197	-0.687039	0.722224
H263	H	1.728197	-0.437039	0.972224
H264	H	1.978197	-0.187039	1.222224
H265	H	1.016021	-0.607185	0.259794
H266	H	1.266021	-0.357185	0.509794
H267	H	1.516021	-0.107185	0.759794
H268	H	1.766021	0.142815	1.009794
H269	H	1.031713	-0.257476	0.815004
H270	H	1.281713	-0.007476	1.065004
H271	H	1.531713	0.242524	1.315004
H272	H	1.781713	0.492524	1.565004
H273	H	1.198054	-0.606984	0.442118
H274	H	1.448054	-0.356984	0.692118
H275	H	1.698054	-0.106984	0.942118
H276	H	1.948054	0.143016	1.192118
F277	F	1.218498	-0.432089	0.901014
F278	F	1.468498	-0.182089	1.151014
F279	F	1.718498	0.067911	1.401014
F280	F	1.968498	0.317911	1.651014
H281	H	0.667875	-0.420947	0.450240
H282	H	0.917875	-0.170947	0.700240
H283	H	1.167875	0.079053	0.950240
H284	H	1.417875	0.329053	1.200240
F285	F	1.019682	-0.246222	0.909383
F286	F	1.269682	0.003778	1.159383
F287	F	1.519682	0.253778	1.409383
F288	F	1.769682	0.503778	1.659383
H289	H	1.222285	-1.070403	0.466262
H290	H	1.472285	-0.820403	0.716262
H291	H	1.722285	-0.570403	0.966262
H292	H	1.972285	-0.320403	1.216262
H293	H	1.031721	-0.257467	0.666277
H294	H	1.281721	-0.007467	0.916277
H295	H	1.531721	0.242533	1.166277
H296	H	1.781721	0.492533	1.416277
F297	F	1.218501	-0.432080	0.648161
F298	F	1.468501	-0.182080	0.898161
F299	F	1.718501	0.067920	1.148161
F300	F	1.968501	0.317920	1.398161
F301	F	1.218506	-0.432093	1.070232
F302	F	1.468506	-0.182093	1.320232
F303	F	1.718506	0.067907	1.570232
F304	F	1.968506	0.317907	1.820232
F305	F	0.412632	-0.246107	0.263746
F306	F	0.662632	0.003893	0.513746
F307	F	0.912632	0.253893	0.763746
F308	F	1.162632	0.503893	1.013746
F309	F	1.019675	-0.246233	1.078612
F310	F	1.269675	0.003767	1.328612
F311	F	1.519675	0.253767	1.578612
F312	F	1.769675	0.503767	1.828612
H313	H	0.415018	-0.420963	0.450268
H314	H	0.665018	-0.170963	0.700268
H315	H	0.915018	0.079037	0.950268
H316	H	1.165018	0.329037	1.200268
F317	F	0.834713	-0.246073	0.263709
F318	F	1.084713	0.003927	0.513709
F319	F	1.334713	0.253927	0.763709
F320	F	1.584713	0.503927	1.013709
F321	F	0.581862	-0.246088	0.263732
F322	F	0.831862	0.003912	0.513732
F323	F	1.081862	0.253912	0.763732
F324	F	1.331862	0.503912	1.013732
H325	H	1.192140	-0.740334	0.436156
H326	H	1.442140	-0.490334	0.686156
H327	H	1.692140	-0.240334	0.936156
H328	H	1.942140	0.009666	1.186156
F329	F	1.027312	-1.079809	0.270956
F330	F	1.277312	-0.829809	0.520956
F331	F	1.527312	-0.579809	0.770956
F332	F	1.777312	-0.329809	1.020956
H333	H	1.046168	-0.937249	0.289900
H334	H	1.296168	-0.687249	0.539900
H335	H	1.546168	-0.437249	0.789900
H336	H	1.796168	-0.187249	1.039900
H337	H	1.010110	-0.740547	0.253837
H338	H	1.260110	-0.490547	0.503837
H339	H	1.510110	-0.240547	0.753837
H340	H	1.760110	0.009453	1.003837
