data_functionalizedCrystal
_audit_creation_method	'MofGen! by Chris Wilmer'
_symmetry_space_group_name_H-M	'P1'
_symmetry_Int_Tables_number	1
_symmetry_cell_setting	triclinic
loop_
_symmetry_equiv_pos_as_xyz
  x,y,z
_cell_length_a	21.395361
_cell_length_b	21.395364
_cell_length_c	12.827885
_cell_angle_alpha	90.022002
_cell_angle_beta	89.961841
_cell_angle_gamma	89.952591
loop_
_atom_site_label
_atom_site_type_symbol
_atom_site_fract_x
_atom_site_fract_y
_atom_site_fract_z
Zn1	Zn	-0.249129	-0.957839	-0.590864
Zn2	Zn	0.250871	-0.457839	-0.090864
Zn3	Zn	-0.353919	-0.957747	-0.416099
Zn4	Zn	0.146081	-0.457747	0.083901
Zn5	Zn	-0.249190	-0.853060	-0.416130
Zn6	Zn	0.250810	-0.353060	0.083870
Zn7	Zn	-0.353903	-0.853023	-0.590791
Zn8	Zn	0.146097	-0.353023	-0.090791
O9	O	-0.301535	-0.905417	-0.503471
O10	O	0.198465	-0.405417	-0.003471
O11	O	-0.263011	-1.045505	-0.567699
O12	O	0.236989	-0.545505	-0.067699
O13	O	-0.340059	-0.943838	-0.269867
O14	O	0.159941	-0.443838	0.230133
O15	O	-0.161504	-0.867013	-0.439352
O16	O	0.338496	-0.367013	0.060648
O17	O	-0.340000	-1.045437	-0.439300
O18	O	0.160000	-0.545437	0.060700
O19	O	-0.161459	-0.943993	-0.567729
O20	O	0.338541	-0.443993	-0.067729
O21	O	-0.263115	-0.866924	-0.269889
O22	O	0.236885	-0.366924	0.230111
O23	O	-0.263099	-0.765377	-0.439281
O24	O	0.236901	-0.265377	0.060719
O25	O	-0.339972	-0.866950	-0.737037
O26	O	0.160028	-0.366950	-0.237037
O27	O	-0.340032	-0.765350	-0.567603
O28	O	0.159968	-0.265350	-0.067603
O29	O	-0.262995	-0.943958	-0.737091
O30	O	0.237005	-0.443958	-0.237091
O31	O	-0.441595	-0.943802	-0.439229
O32	O	0.058405	-0.443802	0.060771
O33	O	-0.441583	-0.866861	-0.567574
O34	O	0.058417	-0.366861	-0.067574
C35	C	-0.301571	-0.742630	-0.503438
C36	C	0.198429	-0.242630	-0.003438
C37	C	-0.301601	-0.672988	-0.503449
C38	C	0.198399	-0.172988	-0.003449
C39	C	-0.261580	-0.640333	-0.570409
C40	C	0.238420	-0.140333	-0.070409
C41	C	-0.261565	-0.574897	-0.570411
C42	C	0.238435	-0.074897	-0.070411
C43	C	-0.301583	-0.542120	-0.503465
C44	C	0.198417	-0.042120	-0.003465
C45	C	-0.341607	-0.574784	-0.436492
C46	C	0.158393	-0.074784	0.063508
C47	C	-0.341616	-0.640218	-0.436484
C48	C	0.158384	-0.140218	0.063516
C49	C	-0.358012	-0.438396	-0.495056
C50	C	0.141988	0.061604	0.004944
C51	C	-0.358004	-0.372963	-0.495071
C52	C	0.141996	0.127037	0.004929
C53	C	-0.301555	-0.340299	-0.503484
C54	C	0.198445	0.159701	-0.003484
C55	C	-0.245111	-0.373077	-0.511903
C56	C	0.254889	0.126923	-0.011903
C57	C	-0.245120	-0.438511	-0.511895
C58	C	0.254880	0.061489	-0.011895
C59	C	-0.301577	-0.471168	-0.503466
C60	C	0.198423	0.028832	-0.003466
C61	C	-0.261514	-0.236691	-0.570450
C62	C	0.238486	0.263309	-0.070450
C63	C	-0.261498	-0.171254	-0.570446
C64	C	0.238502	0.328746	-0.070446
C65	C	-0.341546	-0.171142	-0.436531
C66	C	0.158454	0.328858	0.063469
C67	C	-0.341556	-0.236578	-0.436531
C68	C	0.158444	0.263422	0.063469
C69	C	-0.301541	-0.269348	-0.503496
C70	C	0.198459	0.230652	-0.003496
C71	C	-0.464323	-0.905335	-0.503413
C72	C	0.035677	-0.405335	-0.003413
C73	C	-0.533964	-0.905357	-0.503423
C74	C	-0.033964	-0.405357	-0.003423
C75	C	-0.566663	-0.945455	-0.436662
C76	C	-0.066663	-0.445455	0.063338
C77	C	-0.632098	-0.945484	-0.436685
C78	C	-0.132098	-0.445484	0.063315
C79	C	-0.664833	-0.905404	-0.503459
C80	C	-0.164833	-0.405404	-0.003459
C81	C	-0.632126	-0.865302	-0.570233
C82	C	-0.132126	-0.365302	-0.070233
C83	C	-0.566692	-0.865279	-0.570215
C84	C	-0.066692	-0.365279	-0.070215
C85	C	-0.768563	-0.848989	-0.511647
C86	C	-0.268563	-0.348989	-0.011647
C87	C	-0.833996	-0.849011	-0.511657
C88	C	-0.333996	-0.349011	-0.011657
C89	C	-0.866653	-0.905477	-0.503520
C90	C	-0.366653	-0.405477	-0.003520
C91	C	-0.833870	-0.961921	-0.495350
C92	C	-0.333870	-0.461921	0.004650
C93	C	-0.768436	-0.961898	-0.495332
C94	C	-0.268436	-0.461898	0.004668
C95	C	-0.735785	-0.905425	-0.503486
C96	C	-0.235785	-0.405425	-0.003486
C97	C	-0.970304	-0.945610	-0.436781
C98	C	-0.470304	-0.445610	0.063219
C99	C	-1.035741	-0.945640	-0.436812
C100	C	-0.535741	-0.445640	0.063188
C101	C	-1.035768	-0.865453	-0.570353
C102	C	-0.535768	-0.365453	-0.070353
C103	C	-0.970332	-0.865428	-0.570328
C104	C	-0.470332	-0.365428	-0.070328
C105	C	-0.937605	-0.905506	-0.503536
C106	C	-0.437605	-0.405506	-0.003536
C107	C	-0.138112	-0.905517	-0.503552
C108	C	0.361888	-0.405517	-0.003552
C109	C	-0.068471	-0.905560	-0.503587
C110	C	0.431529	-0.405560	-0.003587
C111	C	-0.301475	-0.905460	-0.776041
C112	C	0.198525	-0.405460	-0.276041
C113	C	-0.301450	-0.905478	-0.892194
C114	C	0.198550	-0.405478	-0.392194
C115	C	-0.301508	-0.068841	-0.503499
C116	C	0.198492	0.431159	-0.003499
C117	C	-0.301516	-0.138482	-0.503497
C118	C	0.198484	0.361518	-0.003497
C119	C	-0.263351	-0.943588	-0.944006
C120	C	0.236649	-0.443588	-0.444006
C121	C	-0.263324	-0.943608	-1.064056
C122	C	0.236676	-0.443608	-0.564056
C123	C	-0.301550	-0.905411	-0.231961
C124	C	0.198450	-0.405411	0.268039
C125	C	-0.301399	-0.905514	-0.115808
C126	C	0.198601	-0.405514	0.384192
H127	H	-0.228971	-0.548304	-0.624937
H128	H	0.271029	-0.048304	-0.124937
H129	H	-0.230752	-0.976199	-0.899487
H130	H	0.269248	-0.476199	-0.399487
H131	H	-0.374190	-0.548092	-0.381983
H132	H	0.125810	-0.048092	0.118017
H133	H	-0.540068	-0.832625	-0.624581
H134	H	-0.040068	-0.332625	-0.124581
F135	F	-0.344039	-0.862868	-1.057580
F136	F	0.155961	-0.362868	-0.557580
H137	H	-0.403984	-0.464985	-0.488204
H138	H	0.096016	0.035015	0.011796
F139	F	-0.344055	-0.862846	-0.950379
F140	F	0.155945	-0.362846	-0.450379
F141	F	-0.185051	-0.473392	-0.520851
F142	F	0.314949	0.026608	-0.020851
F143	F	-0.935531	-0.822747	-0.641381
F144	F	-0.435531	-0.322747	-0.141381
F145	F	-0.220692	-0.986259	-1.122291
F146	F	0.279308	-0.486259	-0.622291
H147	H	-0.540018	-0.978090	-0.382279
H148	H	-0.040018	-0.478090	0.117721
F149	F	-0.868880	-0.788938	-0.520349
F150	F	-0.368880	-0.288938	-0.020349
H151	H	-0.228995	-0.667010	-0.624936
H152	H	0.271005	-0.167010	-0.124936
F153	F	-1.070602	-0.822800	-0.641425
F154	F	-0.570602	-0.322800	-0.141425
F155	F	-0.733813	-0.788886	-0.520309
F156	F	-0.233813	-0.288886	-0.020309
H157	H	-1.062363	-0.978297	-0.382449
H158	H	-0.562363	-0.478297	0.117551
F159	F	-0.185028	-0.338319	-0.520856
F160	F	0.314972	0.161681	-0.020856
H161	H	-0.228904	-0.144667	-0.624971
H162	H	0.271096	0.355333	-0.124971
F163	F	-0.218923	-0.271570	-0.641713
F164	F	0.281077	0.228430	-0.141713
F165	F	-0.418076	-0.338085	-0.486126
F166	F	0.081924	0.161915	0.013874
F167	F	-0.733548	-1.021969	-0.486645
F168	F	-0.233548	-0.521969	0.013355
H169	H	-0.374149	-0.263166	-0.382009
H170	H	0.125851	0.236834	0.117991
F171	F	-0.384133	-0.136263	-0.365275
F172	F	0.115867	0.363737	0.134725
F173	F	-0.384213	-0.674974	-0.365210
F174	F	0.115787	-0.174974	0.134790
F175	F	-0.666905	-0.988164	-0.365625
F176	F	-0.166905	-0.488164	0.134375
H177	H	-0.860458	-1.007901	-0.488724
H178	H	-0.360458	-0.507901	0.011276
H179	H	-0.943656	-0.978246	-0.382398
H180	H	-0.443656	-0.478246	0.117602
H181	H	-0.658783	-0.832670	-0.624602
H182	H	-0.158783	-0.332670	-0.124602
