data_functionalizedCrystal
_audit_creation_method	'MofGen! by Chris Wilmer'
_symmetry_space_group_name_H-M	'P1'
_symmetry_Int_Tables_number	1
_symmetry_cell_setting	triclinic
loop_
_symmetry_equiv_pos_as_xyz
  x,y,z
_cell_length_a	10.686220
_cell_length_b	15.296720
_cell_length_c	15.300062
_cell_angle_alpha	69.243975
_cell_angle_beta	96.038360
_cell_angle_gamma	103.181615
loop_
_atom_site_label
_atom_site_type_symbol
_atom_site_fract_x
_atom_site_fract_y
_atom_site_fract_z
Zn1	Zn	1.897715	-0.464179	0.335152
Zn2	Zn	2.397715	0.035821	0.835152
Zn3	Zn	1.959823	-0.331489	0.459617
Zn4	Zn	2.459823	0.168511	0.959617
Zn5	Zn	1.717869	-0.320609	0.320223
Zn6	Zn	2.217869	0.179391	0.820223
Zn7	Zn	1.717754	-0.502983	0.502517
Zn8	Zn	2.217754	-0.002983	1.002517
O9	O	1.823290	-0.404815	0.404377
O10	O	2.323290	0.095185	0.904377
O11	O	2.082527	-0.434891	0.339956
O12	O	2.582527	0.065109	0.839956
O13	O	1.953768	-0.198190	0.416924
O14	O	2.453768	0.301810	0.916924
O15	O	1.715782	-0.318860	0.193824
O16	O	2.215782	0.181140	0.693824
O17	O	2.128158	-0.337404	0.431400
O18	O	2.628158	0.162596	0.931400
O19	O	1.847914	-0.424341	0.204792
O20	O	2.347914	0.075659	0.704792
O21	O	1.776005	-0.190197	0.314512
O22	O	2.276005	0.309803	0.814512
O23	O	1.541280	-0.356487	0.356111
O24	O	2.041280	0.143513	0.856111
O25	O	1.715586	-0.629691	0.504517
O26	O	2.215586	-0.129691	1.004517
O27	O	1.541196	-0.490477	0.490042
O28	O	2.041196	0.009523	0.990042
O29	O	1.847803	-0.601181	0.381555
O30	O	2.347803	-0.101181	0.881555
O31	O	1.953656	-0.375031	0.593687
O32	O	2.453656	0.124969	1.093687
O33	O	1.775809	-0.501027	0.625206
O34	O	2.275809	-0.001027	1.125206
C35	C	1.495455	-0.426513	0.426113
C36	C	1.995455	0.073487	0.926113
C37	C	1.355205	-0.435822	0.435437
C38	C	1.855205	0.064178	0.935437
C39	C	1.774754	-0.650581	0.449487
C40	C	2.274754	-0.150581	0.949487
C41	C	1.754070	-0.755312	0.468710
C42	C	2.254070	-0.255312	0.968710
C43	C	1.971132	-0.991158	0.266823
C44	C	2.471132	-0.491158	0.766823
C45	C	1.990574	-0.892757	0.248763
C46	C	2.490574	-0.392757	0.748763
C47	C	1.931449	-0.858391	0.303748
C48	C	2.431449	-0.358391	0.803748
C49	C	1.852881	-0.922435	0.376797
C50	C	2.352881	-0.422435	0.876797
C51	C	1.833445	-1.020845	0.394863
C52	C	2.333445	-0.520845	0.894863
C53	C	1.793762	-0.888078	0.431788
C54	C	2.293762	-0.388078	0.931788
C55	C	1.715194	-0.952122	0.504836
C56	C	2.215194	-0.452122	1.004836
C57	C	1.695761	-1.050522	0.522899
C58	C	2.195761	-0.550522	1.022899
C59	C	1.754886	-1.084888	0.467914
C60	C	2.254886	-0.584888	0.967914
C61	C	1.813198	-0.789668	0.413721
C62	C	2.313198	-0.289668	0.913721
C63	C	1.675511	-0.819355	0.541761
C64	C	2.175511	-0.319355	1.041761
C65	C	1.656069	-0.917755	0.559821
C66	C	2.156069	-0.417755	1.059821
C67	C	2.152406	-0.383032	0.382558
C68	C	2.652406	0.116968	0.882558
C69	C	2.292656	-0.373750	0.373260
C70	C	2.792656	0.126250	0.873260
C71	C	1.871490	-0.443439	0.642735
C72	C	2.371490	0.056561	1.142735
C73	C	1.892219	-0.459986	0.744704
C74	C	2.392219	0.040014	1.244704
C75	C	1.871697	-0.159989	0.359372
C76	C	2.371697	0.340011	0.859372
C77	C	1.892573	-0.055201	0.339874
C78	C	2.392573	0.444799	0.839874
C79	C	1.774933	-0.366058	0.165090
C80	C	2.274933	0.133942	0.665090
C81	C	1.754326	-0.349543	0.063120
C82	C	2.254326	0.150457	0.563120
C83	C	1.970672	-0.522717	0.798245
C84	C	2.470672	-0.022717	1.298245
C85	C	1.990158	-0.538272	0.894050
C86	C	2.490158	-0.038272	1.394050
C87	C	1.931202	-0.491091	0.936322
C88	C	2.431202	0.008909	1.436322
C89	C	1.852755	-0.428353	0.882780
C90	C	2.352755	0.071647	1.382780
C91	C	1.833259	-0.412803	0.786967
C92	C	2.333259	0.087197	1.286967
C93	C	1.793789	-0.381176	0.925044
C94	C	2.293789	0.118824	1.425044
C95	C	1.715343	-0.318438	0.871502
C96	C	2.215343	0.181562	1.371502
C97	C	1.695851	-0.302890	0.775698
C98	C	2.195851	0.197110	1.275698
C99	C	1.754806	-0.350071	0.733426
C100	C	2.254806	0.149929	1.233426
C101	C	1.813286	-0.396726	1.020857
C102	C	2.313286	0.103274	1.520857
C103	C	1.675873	-0.286811	1.009579
C104	C	2.175873	0.213189	1.509579
C105	C	1.656387	-0.271257	0.913774
C106	C	2.156387	0.228743	1.413774
H107	H	1.346400	-0.313486	0.312894
H108	H	1.846400	0.186514	0.812894
H109	H	1.301457	-0.496085	0.495812
H110	H	1.801457	0.003915	0.995812
H111	H	2.054548	-0.840620	0.189289
H112	H	2.554548	-0.340620	0.689289
F113	F	1.612336	-0.236136	0.718721
F114	F	2.112336	0.263864	1.218721
F115	F	1.572899	-0.204489	0.856780
F116	F	2.072899	0.295511	1.356780
F117	F	1.613121	-0.236596	1.054564
F118	F	2.113121	0.263404	1.554564
F119	F	1.896773	-0.463494	1.077830
F120	F	2.396773	0.036506	1.577830
H121	H	1.877168	-0.737533	0.354244
H122	H	2.377168	-0.237533	0.854244
F123	F	1.952140	-0.753664	0.284524
F124	F	2.452140	-0.253664	0.784524
H125	H	1.631797	-1.102665	0.582387
H126	H	2.131797	-0.602665	1.082387
F127	F	1.734204	-1.189618	0.487135
F128	F	2.234204	-0.689618	0.987135
H129	H	2.019271	-1.019150	0.222067
H130	H	2.519271	-0.519150	0.722067
F131	F	1.952104	-0.507533	1.038259
F132	F	2.452104	-0.007533	1.538259
H133	H	1.592097	-0.969913	0.619298
H134	H	2.092097	-0.469913	1.119298
H135	H	1.627369	-0.791375	0.586536
H136	H	2.127369	-0.291375	1.086536
H137	H	2.054037	-0.589347	0.937636
H138	H	2.554037	-0.089347	1.437636
H139	H	2.018659	-0.561132	0.763821
H140	H	2.518659	-0.061132	1.263821
H141	H	1.738948	-0.337408	0.655413
H142	H	2.238948	0.162592	1.155413
