data_functionalizedCrystal
_audit_creation_method	'MofGen! by Chris Wilmer'
_symmetry_space_group_name_H-M	'P1'
_symmetry_Int_Tables_number	1
_symmetry_cell_setting	triclinic
loop_
_symmetry_equiv_pos_as_xyz
  x,y,z
_cell_length_a	10.654550
_cell_length_b	10.654550
_cell_length_c	9.730223
_cell_angle_alpha	89.996763
_cell_angle_beta	89.999957
_cell_angle_gamma	84.484917
loop_
_atom_site_label
_atom_site_type_symbol
_atom_site_fract_x
_atom_site_fract_y
_atom_site_fract_z
O1	O	1.667839	0.176399	-0.114183
O2	O	1.302361	0.193205	-0.114208
O3	O	1.493503	0.002062	-0.114190
O4	O	1.476697	0.367541	-0.114202
O5	O	1.493490	0.002057	0.114390
O6	O	1.302348	0.193199	0.114372
O7	O	1.667827	0.176393	0.114396
Zn8	Zn	1.485085	0.184796	0.150676
Zn9	Zn	1.485102	0.184802	-0.150488
O10	O	1.476684	0.367536	0.114378
C11	C	1.255556	0.191968	0.000078
C12	C	1.116113	0.188276	0.000069
C13	C	1.036627	0.300818	0.000069
C14	C	0.905607	0.297341	0.000093
C15	C	0.933570	0.068772	0.000111
C16	C	1.064588	0.072250	0.000097
C17	C	1.492263	-0.044738	0.000098
C18	C	1.488571	-0.184181	0.000093
C19	C	1.601112	-0.263667	0.000105
C20	C	1.597636	-0.394688	0.000095
C21	C	1.369066	-0.366725	0.000067
C22	C	1.372544	-0.235706	0.000067
C23	C	1.733075	-0.279813	0.000127
C24	C	1.729599	-0.410834	0.000117
C25	C	1.714631	0.177630	0.000107
C26	C	1.854074	0.181322	0.000107
C27	C	1.477924	0.414336	0.000087
C28	C	1.481616	0.553779	0.000083
N29	N	1.485083	0.184790	0.356212
N30	N	1.485114	0.184798	-0.356024
C31	C	1.569750	0.100188	0.428146
C32	C	1.569763	0.100189	0.572029
C33	C	1.400438	0.269404	0.572032
C34	C	1.400420	0.269396	0.428151
H35	H	0.840894	0.388984	0.000097
H36	H	1.769485	-0.456474	-0.098575
C37	C	1.229721	0.295056	0.266365
C38	C	1.307350	0.362400	0.349069
H39	H	1.172262	0.352471	0.217550
H40	H	1.280135	0.244674	0.202940
H41	H	1.184102	0.242367	0.322524
H42	H	1.352976	0.415083	0.292908
H43	H	1.256930	0.412805	0.412502
C44	C	1.711768	-0.529871	0.207562
C45	C	1.796686	-0.467216	0.129268
H46	H	1.753183	-0.564682	0.287290
H47	H	1.642734	-0.471877	0.234105
H48	H	1.681812	-0.595564	0.154393
H49	H	1.826635	-0.401517	0.182434
H50	H	1.865742	-0.525216	0.102727
C51	C	1.079080	-0.154041	0.000100
C52	C	1.151970	-0.051466	0.000090
H53	H	1.133028	-0.230411	0.000091
H54	H	1.027407	-0.150647	0.079810
H55	H	1.027386	-0.150637	-0.079612
H56	H	1.203657	-0.054865	0.079807
H57	H	1.203665	-0.054861	-0.079629
C58	C	1.740454	0.074536	0.733820
C59	C	1.662832	0.007196	0.651103
H60	H	1.797907	0.017120	0.782641
H61	H	1.786070	0.127225	0.677679
H62	H	1.690026	0.124919	0.797253
H63	H	1.713261	-0.043180	0.587663
H64	H	1.617213	-0.045515	0.707249
H65	H	1.331508	0.338290	0.630619
C66	C	0.745143	-0.038050	0.000126
C67	C	0.876928	-0.058760	0.000123
H68	H	0.710180	-0.116787	0.000122
H69	H	0.717940	0.008325	0.079832
H70	H	0.717935	0.008340	-0.079590
H71	H	0.904137	-0.105143	0.079845
H72	H	0.904143	-0.105156	-0.079591
C73	C	1.913173	-0.287554	0.149376
C74	C	1.789551	-0.231834	0.133556
H75	H	1.947962	-0.257963	0.231806
H76	H	1.912706	-0.376567	0.153719
H77	H	1.962694	-0.265900	0.073338
H78	H	1.740028	-0.253496	0.209590
H79	H	1.790010	-0.142802	0.129224
C80	C	1.276385	-0.022451	0.000023
C81	C	1.248836	-0.148332	0.000029
H82	H	1.200008	0.031488	-0.000013
H83	H	1.323882	-0.006727	0.079743
H84	H	1.323933	-0.006739	-0.079680
H85	H	1.201296	-0.164047	0.079738
H86	H	1.201320	-0.164062	-0.079699
H87	H	1.274601	-0.408693	0.000045
H88	H	1.784696	-0.250452	-0.095523
C89	C	1.737110	-0.067083	0.442601
C90	C	1.662799	0.007179	0.349070
H91	H	1.794547	-0.124511	0.393782
H92	H	1.782743	-0.014381	0.498701
H93	H	1.684434	-0.112737	0.498738
H94	H	1.715475	0.052840	0.292940
H95	H	1.617163	-0.045530	0.292946
H96	H	1.078574	0.395294	0.000057
