data_functionalizedCrystal
_audit_creation_method	'MofGen! by Chris Wilmer'
_symmetry_space_group_name_H-M	'P1'
_symmetry_Int_Tables_number	1
_symmetry_cell_setting	triclinic
loop_
_symmetry_equiv_pos_as_xyz
  x,y,z
_cell_length_a	19.805407
_cell_length_b	19.805405
_cell_length_c	19.805407
_cell_angle_alpha	90.015038
_cell_angle_beta	90.007450
_cell_angle_gamma	90.023727
loop_
_atom_site_label
_atom_site_type_symbol
_atom_site_fract_x
_atom_site_fract_y
_atom_site_fract_z
Zn1	Zn	1.034666	-0.269623	0.382679
Zn2	Zn	1.284666	-0.019623	0.632679
Zn3	Zn	1.534666	0.230377	0.882679
Zn4	Zn	1.784666	0.480377	1.132679
Zn5	Zn	1.034602	-0.382783	0.269488
Zn6	Zn	1.284602	-0.132783	0.519488
Zn7	Zn	1.534602	0.117217	0.769488
Zn8	Zn	1.784602	0.367217	1.019488
Zn9	Zn	0.921502	-0.269608	0.269507
Zn10	Zn	1.171502	-0.019608	0.519507
Zn11	Zn	1.421502	0.230392	0.769507
Zn12	Zn	1.671502	0.480392	1.019507
Zn13	Zn	0.921445	-0.382770	0.382638
Zn14	Zn	1.171445	-0.132770	0.632638
Zn15	Zn	1.421445	0.117230	0.882638
Zn16	Zn	1.671445	0.367230	1.132638
O17	O	0.978054	-0.326196	0.326078
O18	O	1.228054	-0.076196	0.576078
O19	O	1.478054	0.173804	0.826078
O20	O	1.728054	0.423804	1.076078
O21	O	1.129374	-0.284645	0.367673
O22	O	1.379374	-0.034645	0.617673
O23	O	1.629374	0.215355	0.867673
O24	O	1.879374	0.465355	1.117673
O25	O	1.019596	-0.367769	0.174774
O26	O	1.269596	-0.117769	0.424774
O27	O	1.519596	0.132231	0.674774
O28	O	1.769596	0.382231	0.924774
O29	O	0.936564	-0.174893	0.284546
O30	O	1.186564	0.075107	0.534546
O31	O	1.436564	0.325107	0.784546
O32	O	1.686564	0.575107	1.034546
O33	O	1.129327	-0.367784	0.284512
O34	O	1.379327	-0.117784	0.534512
O35	O	1.629327	0.132216	0.784512
O36	O	1.879327	0.382216	1.034512
O37	O	1.019706	-0.174904	0.367692
O38	O	1.269706	0.075096	0.617692
O39	O	1.519706	0.325096	0.867692
O40	O	1.769706	0.575096	1.117692
O41	O	0.936501	-0.284620	0.174788
O42	O	1.186501	-0.034620	0.424788
O43	O	1.436501	0.215380	0.674788
O44	O	1.686501	0.465380	0.924788
O45	O	0.826777	-0.284607	0.284505
O46	O	1.076777	-0.034607	0.534505
O47	O	1.326777	0.215393	0.784505
O48	O	1.576777	0.465393	1.034505
O49	O	0.936467	-0.367761	0.477360
O50	O	1.186467	-0.117761	0.727360
O51	O	1.436467	0.132239	0.977360
O52	O	1.686467	0.382239	1.227360
O53	O	0.826736	-0.367747	0.367622
O54	O	1.076736	-0.117747	0.617622
O55	O	1.326736	0.132253	0.867622
O56	O	1.576736	0.382253	1.117622
O57	O	1.019651	-0.284633	0.477390
O58	O	1.269651	-0.034633	0.727390
O59	O	1.519651	0.215367	0.977390
O60	O	1.769651	0.465367	1.227390
O61	O	1.019540	-0.477498	0.284472
O62	O	1.269540	-0.227498	0.534472
O63	O	1.519540	0.022502	0.784472
O64	O	1.769540	0.272502	1.034472
O65	O	0.936404	-0.477488	0.367603
O66	O	1.186404	-0.227488	0.617603
O67	O	1.436404	0.022512	0.867603
O68	O	1.686404	0.272512	1.117603
C69	C	0.802198	-0.326175	0.326062
C70	C	1.052198	-0.076175	0.576062
C71	C	1.302198	0.173825	0.826062
C72	C	1.552198	0.423825	1.076062
C73	C	0.726966	-0.326182	0.326071
C74	C	0.976966	-0.076182	0.576071
C75	C	1.226966	0.173818	0.826071
C76	C	1.476966	0.423818	1.076071
C77	C	0.691647	-0.282968	0.369439
C78	C	0.941647	-0.032968	0.619439
C79	C	1.191647	0.217032	0.869439
C80	C	1.441647	0.467032	1.119439
C81	C	0.620958	-0.282972	0.369441
C82	C	0.870958	-0.032972	0.619441
C83	C	1.120958	0.217028	0.869441
C84	C	1.370958	0.467028	1.119441
C85	C	0.585590	-0.326193	0.326079
C86	C	0.835590	-0.076193	0.576079
C87	C	1.085590	0.173807	0.826079
C88	C	1.335590	0.423807	1.076079
C89	C	0.620914	-0.369408	0.282706
C90	C	0.870914	-0.119408	0.532706
C91	C	1.120914	0.130592	0.782706
C92	C	1.370914	0.380592	1.032706
C93	C	0.691601	-0.369401	0.282701
C94	C	0.941601	-0.119401	0.532701
C95	C	1.191601	0.130599	0.782701
C96	C	1.441601	0.380599	1.032701
C97	C	0.335840	-0.369439	0.282727
C98	C	0.585840	-0.119439	0.532727
C99	C	0.835840	0.130561	0.782727
C100	C	1.085840	0.380561	1.032727
C101	C	0.265148	-0.369444	0.282737
C102	C	0.515148	-0.119444	0.532737
C103	C	0.765148	0.130556	0.782737
C104	C	1.015148	0.380556	1.032737
C105	C	0.265198	-0.283010	0.369468
C106	C	0.515198	-0.033010	0.619468
C107	C	0.765198	0.216990	0.869468
C108	C	1.015198	0.466990	1.119468
C109	C	0.335885	-0.283002	0.369462
C110	C	0.585885	-0.033002	0.619462
C111	C	0.835885	0.216998	0.869462
C112	C	1.085885	0.466998	1.119462
C113	C	0.371203	-0.326215	0.326087
C114	C	0.621203	-0.076215	0.576087
C115	C	0.871203	0.173785	0.826087
C116	C	1.121203	0.423785	1.076087
C117	C	0.447851	-0.326210	0.326084
C118	C	0.697851	-0.076210	0.576084
C119	C	0.947851	0.173790	0.826084
C120	C	1.197851	0.423790	1.076084
C121	C	0.508943	-0.326202	0.326085
C122	C	0.758943	-0.076202	0.576085
C123	C	1.008943	0.173798	0.826085
C124	C	1.258943	0.423798	1.076085
C125	C	0.977977	-0.502052	0.326045
C126	C	1.227977	-0.252052	0.576045
C127	C	1.477977	-0.002052	0.826045
C128	C	1.727977	0.247948	1.076045
C129	C	0.978007	-0.577284	0.326054
C130	C	1.228007	-0.327284	0.576054
C131	C	1.478007	-0.077284	0.826054
C132	C	1.728007	0.172716	1.076054
C133	C	1.021338	-0.612610	0.282813
C134	C	1.271338	-0.362610	0.532813
C135	C	1.521338	-0.112610	0.782813
C136	C	1.771338	0.137390	1.032813
C137	C	1.021366	-0.683299	0.282828
C138	C	1.271366	-0.433299	0.532828
C139	C	1.521366	-0.183299	0.782828
C140	C	1.771366	0.066701	1.032828
C141	C	0.978060	-0.718659	0.326081
C142	C	1.228060	-0.468659	0.576081
C143	C	1.478060	-0.218659	0.826081
C144	C	1.728060	0.031341	1.076081
C145	C	0.934727	-0.683328	0.369327
C146	C	1.184727	-0.433328	0.619327
C147	C	1.434727	-0.183328	0.869327
C148	C	1.684727	0.066672	1.119327
C149	C	0.934703	-0.612641	0.369315
C150	C	1.184703	-0.362641	0.619315
C151	C	1.434703	-0.112641	0.869315
C152	C	1.684703	0.137359	1.119315
C153	C	0.934827	-0.968401	0.369377
C154	C	1.184827	-0.718401	0.619377
C155	C	1.434827	-0.468401	0.869377
C156	C	1.684827	-0.218401	1.119377
C157	C	0.934854	-1.039093	0.369384
C158	C	1.184854	-0.789093	0.619384
C159	C	1.434854	-0.539093	0.869384
C160	C	1.684854	-0.289093	1.119384
C161	C	1.021491	-1.039059	0.282890
C162	C	1.271491	-0.789059	0.532890
C163	C	1.521491	-0.539059	0.782890
C164	C	1.771491	-0.289059	1.032890
C165	C	1.021466	-0.968372	0.282878
C166	C	1.271466	-0.718372	0.532878
C167	C	1.521466	-0.468372	0.782878
C168	C	1.771466	-0.218372	1.032878
C169	C	0.978136	-0.933047	0.326126
C170	C	1.228136	-0.683047	0.576126
C171	C	1.478136	-0.433047	0.826126
C172	C	1.728136	-0.183047	1.076126
C173	C	0.978107	-0.856398	0.326110
C174	C	1.228107	-0.606398	0.576110
C175	C	1.478107	-0.356398	0.826110
C176	C	1.728107	-0.106398	1.076110
C177	C	0.978086	-0.795306	0.326094
C178	C	1.228086	-0.545306	0.576094
C179	C	1.478086	-0.295306	0.826094
C180	C	1.728086	-0.045306	1.076094
C181	C	1.154596	-0.326218	0.326095
C182	C	1.404596	-0.076218	0.576095
C183	C	1.654596	0.173782	0.826095
C184	C	1.904596	0.423782	1.076095
C185	C	1.229828	-0.326227	0.326102
C186	C	1.479828	-0.076227	0.576102
C187	C	1.729828	0.173773	0.826102
C188	C	1.979828	0.423773	1.076102
C189	C	0.978060	-0.326197	0.502621
C190	C	1.228060	-0.076197	0.752621
C191	C	1.478060	0.173803	1.002621
C192	C	1.728060	0.423803	1.252621
C193	C	0.978062	-0.326198	0.577853
C194	C	1.228062	-0.076198	0.827853
C195	C	1.478062	0.173802	1.077853
C196	C	1.728062	0.423802	1.327853
C197	C	0.978148	-0.149653	0.326126
C198	C	1.228148	0.100347	0.576126
C199	C	1.478148	0.350347	0.826126
C200	C	1.728148	0.600347	1.076126
C201	C	0.978189	-0.074421	0.326146
C202	C	1.228189	0.175579	0.576146
C203	C	1.478189	0.425579	0.826146
C204	C	1.728189	0.675579	1.076146
C205	C	1.021370	-0.282919	0.613214
C206	C	1.271370	-0.032919	0.863214
C207	C	1.521370	0.217081	1.113214
C208	C	1.771370	0.467081	1.363214
C209	C	1.021365	-0.282917	0.683902
C210	C	1.271365	-0.032917	0.933902
C211	C	1.521365	0.217083	1.183902
C212	C	1.771365	0.467083	1.433902
C213	C	0.978053	-0.326198	0.719228
C214	C	1.228053	-0.076198	0.969228
C215	C	1.478053	0.173802	1.219228
C216	C	1.728053	0.423802	1.469228
C217	C	0.934740	-0.369478	0.683862
C218	C	1.184740	-0.119478	0.933862
C219	C	1.434740	0.130522	1.183862
C220	C	1.684740	0.380522	1.433862
C221	C	0.934743	-0.369476	0.613175
C222	C	1.184743	-0.119476	0.863175
C223	C	1.434743	0.130524	1.113175
C224	C	1.684743	0.380524	1.363175
C225	C	0.934727	-0.369486	0.968936
C226	C	1.184727	-0.119486	1.218936
C227	C	1.434727	0.130514	1.468936
C228	C	1.684727	0.380514	1.718936
C229	C	0.934729	-0.369486	1.039628
C230	C	1.184729	-0.119486	1.289628
C231	C	1.434729	0.130514	1.539628
C232	C	1.684729	0.380514	1.789628
C233	C	1.021348	-0.282927	1.039663
C234	C	1.271348	-0.032927	1.289663
C235	C	1.521348	0.217073	1.539663
C236	C	1.771348	0.467073	1.789663
C237	C	1.021351	-0.282925	0.968976
C238	C	1.271351	-0.032925	1.218976
C239	C	1.521351	0.217075	1.468976
C240	C	1.771351	0.467075	1.718976
C241	C	0.978036	-0.326203	0.933616
C242	C	1.228036	-0.076203	1.183616
C243	C	1.478036	0.173797	1.433616
C244	C	1.728036	0.423797	1.683616
C245	C	0.978042	-0.326203	0.856967
C246	C	1.228042	-0.076203	1.106967
C247	C	1.478042	0.173797	1.356967
C248	C	1.728042	0.423797	1.606967
C249	C	0.978050	-0.326201	0.795876
C250	C	1.228050	-0.076201	1.045876
C251	C	1.478050	0.173799	1.295876
C252	C	1.728050	0.423799	1.545876
C253	C	0.978041	-0.326208	1.150222
C254	C	1.228041	-0.076208	1.400222
C255	C	1.478041	0.173792	1.650222
C256	C	1.728041	0.423792	1.900222
C257	C	0.978034	-0.326203	1.074990
C258	C	1.228034	-0.076203	1.324990
C259	C	1.478034	0.173797	1.574990
C260	C	1.728034	0.423797	1.824990
H261	H	0.720439	-0.247774	0.404751
H262	H	0.970439	0.002226	0.654751
H263	H	1.220439	0.252226	0.904751
H264	H	1.470439	0.502226	1.154751
H265	H	0.364587	-0.404626	0.247409
H266	H	0.614587	-0.154626	0.497409
H267	H	0.864587	0.095374	0.747409
H268	H	1.114587	0.345374	0.997409
H269	H	1.056642	-0.247677	0.584456
H270	H	1.306642	0.002323	0.834456
H271	H	1.556642	0.252323	1.084456
H272	H	1.806642	0.502323	1.334456
Cl273	Cl	0.880276	-0.423899	1.084037
Cl274	Cl	1.130276	-0.173899	1.334037
Cl275	Cl	1.380276	0.076101	1.584037
Cl276	Cl	1.630276	0.326101	1.834037
Cl277	Cl	0.576450	-0.423740	0.228189
Cl278	Cl	0.826450	-0.173740	0.478189
Cl279	Cl	1.076450	0.076260	0.728189
Cl280	Cl	1.326450	0.326260	0.978189
H281	H	0.236434	-0.247822	0.404783
H282	H	0.486434	0.002178	0.654783
H283	H	0.736434	0.252178	0.904783
H284	H	0.986434	0.502178	1.154783
H285	H	0.899473	-0.404715	0.712631
H286	H	1.149473	-0.154715	0.962631
H287	H	1.399473	0.095285	1.212631
H288	H	1.649473	0.345285	1.462631
Cl289	Cl	0.880294	-0.423883	0.568721
Cl290	Cl	1.130294	-0.173883	0.818721
Cl291	Cl	1.380294	0.076117	1.068721
Cl292	Cl	1.630294	0.326117	1.318721
Cl293	Cl	1.075779	-0.568164	0.228430
Cl294	Cl	1.325779	-0.318164	0.478430
Cl295	Cl	1.575779	-0.068164	0.728430
Cl296	Cl	1.825779	0.181836	0.978430
Cl297	Cl	0.880229	-0.568230	0.423679
Cl298	Cl	1.130229	-0.318230	0.673679
Cl299	Cl	1.380229	-0.068230	0.923679
Cl300	Cl	1.630229	0.181770	1.173679
Cl301	Cl	0.576561	-0.228646	0.423966
Cl302	Cl	0.826561	0.021354	0.673966
Cl303	Cl	1.076561	0.271354	0.923966
Cl304	Cl	1.326561	0.521354	1.173966
Cl305	Cl	0.736002	-0.423729	0.228179
Cl306	Cl	0.986002	-0.173729	0.478179
Cl307	Cl	1.236002	0.076271	0.728179
Cl308	Cl	1.486002	0.326271	0.978179
Cl309	Cl	0.220686	-0.423782	0.228218
Cl310	Cl	0.470686	-0.173782	0.478218
Cl311	Cl	0.720686	0.076218	0.728218
Cl312	Cl	0.970686	0.326218	0.978218
H313	H	1.056650	-0.712059	0.247616
H314	H	1.306650	-0.462059	0.497616
H315	H	1.556650	-0.212059	0.747616
H316	H	1.806650	0.037941	0.997616
Cl317	Cl	1.075842	-0.228537	0.728353
Cl318	Cl	1.325842	0.021463	0.978353
Cl319	Cl	1.575842	0.271463	1.228353
Cl320	Cl	1.825842	0.521463	1.478353
Cl321	Cl	1.075804	-0.228515	0.924570
Cl322	Cl	1.325804	0.021485	1.174570
Cl323	Cl	1.575804	0.271485	1.424570
Cl324	Cl	1.825804	0.521485	1.674570
Cl325	Cl	0.380344	-0.228668	0.423980
Cl326	Cl	0.630344	0.021332	0.673980
Cl327	Cl	0.880344	0.271332	0.923980
Cl328	Cl	1.130344	0.521332	1.173980
H329	H	1.056775	-1.067830	0.247678
H330	H	1.306775	-0.817830	0.497678
H331	H	1.556775	-0.567830	0.747678
H332	H	1.806775	-0.317830	0.997678
Cl333	Cl	1.075911	-0.923923	0.228501
Cl334	Cl	1.325911	-0.673923	0.478501
Cl335	Cl	1.575911	-0.423923	0.728501
Cl336	Cl	1.825911	-0.173923	0.978501
Cl337	Cl	0.880409	-1.083545	0.423765
Cl338	Cl	1.130409	-0.833545	0.673765
Cl339	Cl	1.380409	-0.583545	0.923765
Cl340	Cl	1.630409	-0.333545	1.173765
Cl341	Cl	0.880354	-0.924001	0.423745
Cl342	Cl	1.130354	-0.674001	0.673745
Cl343	Cl	1.380354	-0.424001	0.923745
Cl344	Cl	1.630354	-0.174001	1.173745
Cl345	Cl	0.880289	-0.727781	0.423706
Cl346	Cl	1.130289	-0.477781	0.673706
Cl347	Cl	1.380289	-0.227781	0.923706
Cl348	Cl	1.630289	0.022219	1.173706
H349	H	0.899467	-0.404735	0.940154
H350	H	1.149467	-0.154735	1.190154
H351	H	1.399467	0.095265	1.440154
H352	H	1.649467	0.345265	1.690154
Cl353	Cl	1.075800	-0.228517	1.084119
Cl354	Cl	1.325800	0.021483	1.334119
Cl355	Cl	1.575800	0.271483	1.584119
Cl356	Cl	1.825800	0.521483	1.834119
