data_functionalizedCrystal
_audit_creation_method	'MofGen! by Chris Wilmer'
_symmetry_space_group_name_H-M	'P1'
_symmetry_Int_Tables_number	1
_symmetry_cell_setting	triclinic
loop_
_symmetry_equiv_pos_as_xyz
  x,y,z
_cell_length_a	12.759401
_cell_length_b	12.827892
_cell_length_c	12.759393
_cell_angle_alpha	89.969144
_cell_angle_beta	89.981504
_cell_angle_gamma	90.015553
loop_
_atom_site_label
_atom_site_type_symbol
_atom_site_fract_x
_atom_site_fract_y
_atom_site_fract_z
Zn1	Zn	1.606250	-0.415967	-0.593987
Zn2	Zn	1.606143	-0.590748	-0.418309
Zn3	Zn	1.430552	-0.416022	-0.418326
Zn4	Zn	1.430539	-0.590667	-0.593950
O5	O	1.518371	-0.503351	-0.506143
O6	O	1.753257	-0.439163	-0.570691
O7	O	1.582811	-0.567626	-0.271290
O8	O	1.453910	-0.269778	-0.441650
O9	O	1.753178	-0.567573	-0.441621
O10	O	1.582994	-0.269738	-0.570707
O11	O	1.453805	-0.439256	-0.271303
O12	O	1.283530	-0.439178	-0.441615
O13	O	1.453887	-0.567436	-0.740976
O14	O	1.283520	-0.567489	-0.570645
O15	O	1.582981	-0.439085	-0.741003
O16	O	1.582798	-0.736973	-0.441586
O17	O	1.453782	-0.736914	-0.570629
C18	C	1.245404	-0.503332	-0.506129
C19	C	1.128627	-0.503349	-0.506147
C20	C	1.073787	-0.570267	-0.573222
C21	C	0.964063	-0.570280	-0.573234
C22	C	0.964028	-0.436453	-0.439086
C23	C	1.073750	-0.436436	-0.439081
C24	C	1.073807	-0.647534	-0.650668
C25	C	0.964083	-0.647548	-0.650680
C26	C	1.518305	-0.774861	-0.506124
C27	C	1.518373	-0.891014	-0.506152
C28	C	1.582290	-0.942793	-0.442368
C29	C	1.582362	-1.062843	-0.442395
C30	C	1.792404	-0.503371	-0.506158
C31	C	1.909181	-0.503379	-0.506164
C32	C	1.518445	-0.503245	-0.780176
C33	C	1.518476	-0.503200	-0.896953
C34	C	1.518466	-0.230781	-0.506184
C35	C	1.518506	-0.114628	-0.506202
C36	C	1.585705	-0.436361	-0.951831
C37	C	1.585730	-0.436324	-1.061555
C38	C	1.451294	-0.569973	-1.061514
C39	C	1.451265	-0.570005	-0.951792
C40	C	1.663323	-0.359203	-0.951855
C41	C	1.663348	-0.359165	-1.061579
C42	C	1.518358	-0.503380	-0.233176
C43	C	1.518530	-0.503131	-0.116399
H44	H	1.107820	-0.724374	-0.621385
H45	H	1.103615	-0.625951	-0.732075
Cl46	Cl	0.911584	-0.602947	-0.770100
H47	H	1.637080	-1.107373	-0.387784
Cl48	Cl	1.788976	-0.392616	-1.107563
H49	H	1.463777	-1.070106	-0.560809
Cl50	Cl	1.142689	-0.352287	-0.354774
Cl51	Cl	1.433971	-0.959781	-0.590502
H52	H	1.641556	-0.278273	-0.922098
H53	H	1.396517	-0.624428	-0.907115
Cl54	Cl	1.782623	-0.403991	-0.899298
H55	H	1.634235	-0.282269	-1.095626
H56	H	1.396571	-0.624360	-1.106177
Cl57	Cl	0.895033	-0.352338	-0.354780
H58	H	0.934286	-0.728463	-0.628749
Cl59	Cl	1.666705	-0.874026	-0.358030
