data_functionalizedCrystal
_audit_creation_method	'MofGen! by Chris Wilmer'
_symmetry_space_group_name_H-M	'P1'
_symmetry_Int_Tables_number	1
_symmetry_cell_setting	triclinic
loop_
_symmetry_equiv_pos_as_xyz
  x,y,z
_cell_length_a	10.654550
_cell_length_b	10.654550
_cell_length_c	9.730223
_cell_angle_alpha	90.004253
_cell_angle_beta	90.006811
_cell_angle_gamma	84.484916
loop_
_atom_site_label
_atom_site_type_symbol
_atom_site_fract_x
_atom_site_fract_y
_atom_site_fract_z
O1	O	-1.667839	-0.176398	-0.114403
O2	O	-1.302361	-0.193204	-0.114381
O3	O	-1.493503	-0.002062	-0.114383
O4	O	-1.476697	-0.367541	-0.114400
O5	O	-1.493491	-0.002057	0.114196
O6	O	-1.302348	-0.193199	0.114199
O7	O	-1.667827	-0.176393	0.114177
Zn8	Zn	-1.485086	-0.184795	0.150480
Zn9	Zn	-1.485102	-0.184802	-0.150684
O10	O	-1.476684	-0.367535	0.114180
C11	C	-1.255556	-0.191968	-0.000088
C12	C	-1.116113	-0.188276	-0.000079
C13	C	-1.492263	0.044739	-0.000094
C14	C	-1.488571	0.184182	-0.000096
C15	C	-1.714631	-0.177630	-0.000119
C16	C	-1.854074	-0.181321	-0.000136
C17	C	-1.036628	-0.300817	-0.000104
C18	C	-0.905607	-0.297341	-0.000128
C19	C	-0.933570	-0.068771	-0.000107
C20	C	-1.064588	-0.072249	-0.000074
C21	C	-1.020482	-0.432780	-0.000122
C22	C	-0.889461	-0.429304	-0.000146
C23	C	-1.477925	-0.414336	-0.000112
C24	C	-1.481617	-0.553779	-0.000119
N25	N	-1.485084	-0.184790	0.356017
C26	C	-1.601112	0.263667	-0.000103
C27	C	-1.597636	0.394688	-0.000120
C28	C	-1.369066	0.366725	-0.000116
C29	C	-1.372544	0.235707	-0.000109
N30	N	-1.485114	-0.184798	-0.356220
C31	C	-1.569750	-0.100188	0.427941
C32	C	-1.569763	-0.100188	0.571824
C33	C	-1.400438	-0.269404	0.571845
C34	C	-1.400420	-0.269396	0.427965
H35	H	-0.891602	0.025694	-0.000124
C36	C	-1.262244	0.555152	-0.000107
C37	C	-1.241534	0.423367	-0.000110
H38	H	-1.183508	0.590114	-0.000091
H39	H	-1.308625	0.582355	-0.079817
H40	H	-1.308630	0.582360	0.079605
H41	H	-1.195156	0.396157	-0.079829
H42	H	-1.195134	0.396152	0.079608
H43	H	-1.056143	-0.474802	-0.098811
H44	H	-1.638687	-0.031295	0.369364
C45	C	-0.953059	-0.541206	0.207318
C46	C	-1.060085	-0.502440	0.129019
H47	H	-0.977513	-0.584201	0.287045
H48	H	-0.896814	-0.596167	0.154158
H49	H	-0.912279	-0.469534	0.233870
H50	H	-1.100861	-0.574114	0.102458
H51	H	-1.116351	-0.447476	0.182188
H52	H	-1.280893	0.170986	-0.000108
C53	C	-1.737141	0.067059	0.557342
C54	C	-1.662837	-0.007196	0.650884
H55	H	-1.794607	0.124466	0.606152
H56	H	-1.684472	0.112726	0.501246
H57	H	-1.782753	0.014342	0.501202
H58	H	-1.617218	0.045520	0.707017
H59	H	-1.715513	-0.052866	0.707003
H60	H	-0.843785	-0.469182	0.098537
H61	H	-0.847734	-0.479028	-0.095815
H62	H	-1.331508	-0.338290	0.630440
C63	C	-1.233053	-0.436675	0.442426
C64	C	-1.307350	-0.362401	0.348894
H65	H	-1.175603	-0.494092	0.393608
H66	H	-1.187435	-0.383981	0.498564
H67	H	-1.285737	-0.482343	0.498525
H68	H	-1.254666	-0.316727	0.292802
H69	H	-1.352972	-0.415103	0.292734
C70	C	-1.797000	0.247144	-0.117627
C71	C	-1.728644	0.207025	-0.000112
H72	H	-1.875731	0.212169	-0.117638
H73	H	-1.811034	0.336538	-0.117621
H74	H	-1.750600	0.219911	-0.197322
H75	H	-1.775041	0.234266	0.079583
H76	H	-1.714615	0.117611	-0.000105
C77	C	-1.079063	0.154028	-0.000039
C78	C	-1.151961	0.051460	-0.000031
H79	H	-1.133006	0.230402	-0.000019
H80	H	-1.027354	0.150622	0.079652
H81	H	-1.027404	0.150630	-0.079770
H82	H	-1.203613	0.054853	0.079706
H83	H	-1.203691	0.054868	-0.079730
H84	H	-1.689279	0.459401	-0.000129
