data_functionalizedCrystal
_audit_creation_method	'MofGen! by Chris Wilmer'
_symmetry_space_group_name_H-M	'P1'
_symmetry_Int_Tables_number	1
_symmetry_cell_setting	triclinic
loop_
_symmetry_equiv_pos_as_xyz
  x,y,z
_cell_length_a	16.959455
_cell_length_b	19.077068
_cell_length_c	19.076919
_cell_angle_alpha	94.470751
_cell_angle_beta	92.282212
_cell_angle_gamma	92.323952
loop_
_atom_site_label
_atom_site_type_symbol
_atom_site_fract_x
_atom_site_fract_y
_atom_site_fract_z
Zn1	Zn	1.176473	-0.296738	-0.409832
Zn2	Zn	1.676473	0.203262	0.090168
Zn3	Zn	1.176375	-0.409891	-0.296677
Zn4	Zn	1.676375	0.090109	0.203323
Zn5	Zn	1.049829	-0.292016	-0.291964
Zn6	Zn	1.549829	0.207984	0.208036
Zn7	Zn	1.038720	-0.414582	-0.414522
Zn8	Zn	1.538720	0.085418	0.085478
O9	O	1.110349	-0.353307	-0.353249
O10	O	1.610349	0.146693	0.146751
O11	O	1.287070	-0.311761	-0.394831
O12	O	1.787070	0.188239	0.105169
O13	O	1.164197	-0.390316	-0.197404
O14	O	1.664197	0.109684	0.302596
O15	O	1.071319	-0.193994	-0.303664
O16	O	1.571319	0.306006	0.196336
O17	O	1.286998	-0.394894	-0.311696
O18	O	1.786998	0.105106	0.188304
O19	O	1.164363	-0.197463	-0.390261
O20	O	1.664363	0.302537	0.109739
O21	O	1.071224	-0.303714	-0.193942
O22	O	1.571224	0.196286	0.306058
O23	O	0.937746	-0.308262	-0.308212
O24	O	1.437746	0.191738	0.191788
O25	O	1.052385	-0.402888	-0.512547
O26	O	1.552385	0.097112	-0.012547
O27	O	0.929584	-0.398310	-0.398255
O28	O	1.429584	0.101690	0.101745
O29	O	1.153591	-0.316309	-0.509101
O30	O	1.653591	0.183691	-0.009101
O31	O	1.153424	-0.509163	-0.316244
O32	O	1.653424	-0.009163	0.183756
O33	O	1.052290	-0.512608	-0.402825
O34	O	1.552290	-0.012608	0.097175
C35	C	1.101662	-0.536465	-0.360570
C36	C	1.601662	-0.036465	0.139430
C37	C	1.098016	-0.614821	-0.363726
C38	C	1.598016	-0.114821	0.136274
C39	C	0.904985	-0.353283	-0.353232
C40	C	1.404985	0.146717	0.146768
C41	C	0.817127	-0.353290	-0.353242
C42	C	1.317127	0.146710	0.146758
C43	C	1.148997	-0.649818	-0.320168
C44	C	1.648997	-0.149818	0.179832
C45	C	1.145573	-0.723442	-0.323141
C46	C	1.645573	-0.223442	0.176859
C47	C	1.091164	-0.762069	-0.369668
C48	C	1.591164	-0.262069	0.130332
C49	C	1.040181	-0.727068	-0.413231
C50	C	1.540181	-0.227068	0.086769
C51	C	1.043610	-0.653445	-0.410261
C52	C	1.543610	-0.153445	0.089739
C53	C	1.075263	-0.982454	-0.383382
C54	C	1.575263	-0.482454	0.116618
C55	C	1.071837	-1.056083	-0.386346
C56	C	1.571837	-0.556083	0.113654
C57	C	1.177229	-1.052452	-0.296257
C58	C	1.677229	-0.552452	0.203743
C59	C	1.180650	-0.978827	-0.293289
C60	C	1.680650	-0.478827	0.206711
C61	C	1.129670	-0.943832	-0.336854
C62	C	1.629670	-0.443832	0.163146
N63	N	1.087661	-0.837326	-0.372706
N64	N	1.587661	-0.337326	0.127294
N65	N	1.133178	-0.868578	-0.333819
N66	N	1.633178	-0.368578	0.166181
C67	C	0.449874	-0.306386	-0.306456
C68	C	0.949874	0.193614	0.193544
C69	C	0.441423	-0.400288	-0.400084
C70	C	0.941423	0.099712	0.099916
C71	C	0.523970	-0.400277	-0.400080
C72	C	1.023970	0.099723	0.099920
C73	C	0.569472	-0.353321	-0.353262
C74	C	1.069472	0.146679	0.146738
C75	C	0.532428	-0.306375	-0.306448
C76	C	1.032428	0.193625	0.193552
C77	C	0.561020	-0.447227	-0.446887
C78	C	1.061020	0.052773	0.053113
C79	C	0.643572	-0.447219	-0.446884
C80	C	1.143572	0.052781	0.053116
C81	C	0.689076	-0.400259	-0.400069
C82	C	1.189076	0.099741	0.099931
C83	C	0.652027	-0.353311	-0.353254
C84	C	1.152027	0.146689	0.146746
C85	C	0.697529	-0.306355	-0.306436
C86	C	1.197529	0.193645	0.193564
C87	C	0.660481	-0.259402	-0.259624
C88	C	1.160481	0.240598	0.240376
C89	C	0.577932	-0.259415	-0.259633
C90	C	1.077932	0.240585	0.240367
C91	C	0.771625	-0.400247	-0.400060
C92	C	1.271625	0.099753	0.099940
C93	C	0.780083	-0.306344	-0.306429
C94	C	1.280083	0.193656	0.193571
C95	C	1.316516	-0.353331	-0.353266
C96	C	1.816516	0.146669	0.146734
C97	C	1.404371	-0.353342	-0.353274
C98	C	1.904371	0.146658	0.146726
C99	C	1.101760	-0.360649	-0.537118
C100	C	1.601760	0.139351	-0.037118
C101	C	1.098099	-0.363777	-0.615472
C102	C	1.598099	0.136223	-0.115472
C103	C	1.119091	-0.169434	-0.345914
C104	C	1.619091	0.330566	0.154086
C105	C	1.122817	-0.091079	-0.342788
C106	C	1.622817	0.408921	0.157212
C107	C	1.149070	-0.320172	-0.650490
C108	C	1.649070	0.179828	-0.150490
C109	C	1.145621	-0.323109	-0.724111
C110	C	1.645621	0.176891	-0.224111
C111	C	1.091205	-0.369655	-0.762714
C112	C	1.591205	0.130345	-0.262714
C113	C	1.040229	-0.413262	-0.727691
C114	C	1.540229	0.086738	-0.227691
C115	C	1.043674	-0.410321	-0.654070
C116	C	1.543674	0.089679	-0.154070
C117	C	1.075246	-0.383281	-0.983088
C118	C	1.575246	0.116719	-0.483088
C119	C	1.071806	-0.386221	-1.056714
C120	C	1.571806	0.113779	-0.556714
C121	C	1.177197	-0.296066	-1.053129
C122	C	1.677197	0.203934	-0.553129
C123	C	1.180641	-0.293132	-0.979507
C124	C	1.680641	0.206868	-0.479507
C125	C	1.129663	-0.336737	-0.944491
C126	C	1.629663	0.163263	-0.444491
N127	N	1.087680	-0.372660	-0.837967
N128	N	1.587680	0.127340	-0.337967
N129	N	1.133184	-0.333728	-0.869238
N130	N	1.633184	0.166272	-0.369238
C131	C	1.118953	-0.345943	-0.170093
C132	C	1.618953	0.154057	0.329907
C133	C	1.122776	-0.342615	-0.091732
C134	C	1.622776	0.157385	0.408268
H135	H	1.193299	-0.618372	-0.282278
H136	H	1.693299	-0.118372	0.217722
H137	H	1.002097	-0.624952	-0.445732
H138	H	1.502097	-0.124952	0.054268
H139	H	0.523966	-0.485461	-0.484999
H140	H	1.023966	0.014539	0.015001
H141	H	1.187128	-0.287603	-0.752620
H142	H	1.687128	0.212397	-0.252620
H143	H	0.817126	-0.268102	-0.268307
H144	H	1.317126	0.231898	0.231693
H145	H	0.419706	-0.268156	-0.268345
H146	H	0.919706	0.231844	0.231655
H147	H	1.002161	-0.445822	-0.625559
H148	H	1.502161	0.054178	-0.125559
H149	H	0.697540	-0.221174	-0.221502
H150	H	1.197540	0.278826	0.278498
H151	H	1.224954	-0.255231	-0.948082
H152	H	1.724954	0.244769	-0.448082
H153	H	1.218700	-0.260565	-1.081648
H154	H	1.718700	0.239435	-0.581648
H155	H	1.187086	-0.751933	-0.287671
H156	H	1.687086	-0.251933	0.212329
H157	H	0.547760	-0.221190	-0.221521
H158	H	1.047760	0.278810	0.278479
H159	H	0.404370	-0.438521	-0.438197
H160	H	0.904370	0.061479	0.061803
H161	H	0.673729	-0.485450	-0.485001
H162	H	1.173729	0.014550	0.014999
H163	H	1.224954	-0.947378	-0.255403
H164	H	1.724954	-0.447378	0.244597
H165	H	0.801786	-0.438476	-0.438171
H166	H	1.301786	0.061524	0.061829
H167	H	1.193383	-0.282271	-0.619064
H168	H	1.693383	0.217729	-0.119064
H169	H	1.033747	-0.418798	-0.954587
H170	H	1.533747	0.081202	-0.454587
H171	H	1.218735	-1.080952	-0.260790
H172	H	1.718735	-0.580952	0.239210
H173	H	0.995919	-0.451159	-0.759127
H174	H	1.495919	0.048841	-0.259127
H175	H	1.027539	-1.087531	-0.424247
H176	H	1.527539	-0.587531	0.075753
H177	H	1.033752	-0.953968	-0.418853
H178	H	1.533752	-0.453968	0.081147
H179	H	1.027491	-0.424126	-1.088142
H180	H	1.527491	0.075874	-0.588142
H181	H	0.995884	-0.758524	-0.451117
H182	H	1.495884	-0.258524	0.048883
