data_functionalizedCrystal
_audit_creation_method	'MofGen! by Chris Wilmer'
_symmetry_space_group_name_H-M	'P1'
_symmetry_Int_Tables_number	1
_symmetry_cell_setting	triclinic
loop_
_symmetry_equiv_pos_as_xyz
  x,y,z
_cell_length_a	16.959454
_cell_length_b	12.827893
_cell_length_c	12.827893
_cell_angle_alpha	89.994487
_cell_angle_beta	90.007122
_cell_angle_gamma	89.981905
loop_
_atom_site_label
_atom_site_type_symbol
_atom_site_fract_x
_atom_site_fract_y
_atom_site_fract_z
Zn1	Zn	-0.314861	-1.597476	0.590897
Zn2	Zn	0.185139	-1.097476	1.090897
Zn3	Zn	-0.447008	-1.597403	0.416158
Zn4	Zn	0.052992	-1.097403	0.916158
Zn5	Zn	-0.314843	-1.422764	0.416166
Zn6	Zn	0.185157	-0.922764	0.916166
Zn7	Zn	-0.446997	-1.422688	0.590853
Zn8	Zn	0.053003	-0.922688	1.090853
O9	O	-0.380927	-1.510083	0.503519
O10	O	0.119073	-1.010083	1.003519
O11	O	-0.332403	-1.743702	0.567733
O12	O	0.167597	-1.243702	1.067733
O13	O	-0.429473	-1.574238	0.269923
O14	O	0.070527	-1.074238	0.769923
O15	O	-0.204234	-1.446003	0.439366
O16	O	0.295766	-0.946003	0.939366
O17	O	-0.429491	-1.743649	0.439353
O18	O	0.070509	-1.243649	0.939353
O19	O	-0.204247	-1.574362	0.567741
O20	O	0.295753	-1.074362	1.067741
O21	O	-0.332372	-1.445932	0.269929
O22	O	0.167628	-0.945932	0.769929
O23	O	-0.332361	-1.276518	0.439323
O24	O	0.167639	-0.776518	0.939323
O25	O	-0.429471	-1.445873	0.737095
O26	O	0.070529	-0.945873	1.237095
O27	O	-0.429454	-1.276462	0.567665
O28	O	0.070546	-0.776462	1.067665
O29	O	-0.332392	-1.574288	0.737127
O30	O	0.167608	-1.074288	1.237127
O31	O	-0.557617	-1.574164	0.439310
O32	O	-0.057617	-1.074164	0.939310
O33	O	-0.557609	-1.445802	0.567657
O34	O	-0.057609	-0.945802	1.067657
C35	C	-0.380905	-1.238573	0.503490
C36	C	0.119095	-0.738573	1.003490
C37	C	-0.380914	-1.122420	0.503503
C38	C	0.119086	-0.622420	1.003503
C39	C	-0.428881	-1.070609	0.439891
C40	C	0.071119	-0.570609	0.939891
C41	C	-0.428892	-0.950559	0.439902
C42	C	0.071108	-0.450559	0.939902
C43	C	-0.586293	-1.509995	0.503501
C44	C	-0.086293	-1.009995	1.003501
C45	C	-0.674150	-1.510053	0.503528
C46	C	-0.174150	-1.010053	1.003528
C47	C	-1.045651	-1.443342	0.570342
C48	C	-0.545651	-0.943342	1.070342
C49	C	-1.045600	-1.577115	0.436802
C50	C	-0.545600	-1.077115	0.936802
C51	C	-0.963054	-1.577079	0.436792
C52	C	-0.463054	-1.077079	0.936792
C53	C	-0.921803	-1.510172	0.503557
C54	C	-0.421803	-1.010172	1.003557
C55	C	-0.963097	-1.443301	0.570332
C56	C	-0.463097	-0.943301	1.070332
C57	C	-0.921753	-1.643940	0.370011
C58	C	-0.421753	-1.143940	0.870011
C59	C	-0.839202	-1.643906	0.369998
C60	C	-0.339202	-1.143906	0.869998
C61	C	-0.797949	-1.577003	0.436769
C62	C	-0.297949	-1.077003	0.936769
C63	C	-0.839249	-1.510131	0.503547
C64	C	-0.339249	-1.010131	1.003547
C65	C	-0.797998	-1.443224	0.570313
C66	C	-0.297998	-0.943224	1.070313
C67	C	-0.839296	-1.376356	0.637097
C68	C	-0.339296	-0.876356	1.137097
C69	C	-0.921845	-1.376398	0.637103
C70	C	-0.421845	-0.876398	1.137103
C71	C	-0.715401	-1.576961	0.436763
C72	C	-0.215401	-1.076961	0.936763
C73	C	-0.715445	-1.443183	0.570303
C74	C	-0.215445	-0.943183	1.070303
C75	C	-0.174759	-1.510199	0.503559
C76	C	0.325241	-1.010199	1.003559
C77	C	-0.086902	-1.510249	0.503577
C78	C	0.413098	-1.010249	1.003577
C79	C	-0.380932	-1.510080	0.776089
C80	C	0.119068	-1.010080	1.276089
C81	C	-0.380934	-1.510079	0.892242
C82	C	0.119066	-1.010079	1.392242
C83	C	-0.380943	-0.782653	0.503539
C84	C	0.119057	-0.282653	1.003539
C85	C	-0.380934	-0.898806	0.503526
C86	C	0.119066	-0.398806	1.003526
C87	C	-0.332902	-1.573616	0.944043
C88	C	0.167098	-1.073616	1.444043
C89	C	-0.332903	-1.573617	1.064093
C90	C	0.167097	-1.073617	1.564093
C91	C	-0.380940	-1.510078	1.232009
C92	C	0.119060	-1.010078	1.732009
C93	C	-0.380937	-1.510079	1.115856
C94	C	0.119063	-1.010079	1.615856
H95	H	-0.805700	-1.321875	0.691453
H96	H	-0.305700	-0.821875	1.191453
C97	C	-1.138400	-1.717692	0.422369
C98	C	-0.638400	-1.217692	0.922369
C99	C	-1.090958	-1.650613	0.363391
C100	C	-0.590958	-1.150613	0.863391
H101	H	-1.166406	-1.763060	0.377037
H102	H	-0.666406	-1.263060	0.877037
H103	H	-1.174791	-1.677870	0.462147
H104	H	-0.674791	-1.177870	0.962147
H105	H	-1.106175	-1.757652	0.467908
H106	H	-0.606175	-1.257652	0.967908
H107	H	-1.123184	-1.610647	0.317856
H108	H	-0.623184	-1.110647	0.817856
H109	H	-1.054563	-1.690439	0.323594
H110	H	-0.554563	-1.190439	0.823594
C111	C	-0.199085	-1.624564	0.910252
C112	C	0.300915	-1.124564	1.410252
C113	C	-0.277385	-1.647052	0.883939
C114	C	0.222615	-1.147052	1.383939
H115	H	-0.164812	-1.669898	0.873141
H116	H	0.335188	-1.169898	1.373141
H117	H	-0.191807	-1.634206	0.983034
H118	H	0.308193	-1.134206	1.483034
H119	H	-0.187533	-1.554337	0.892409
H120	H	0.312467	-1.054337	1.392409
H121	H	-0.288939	-1.717276	0.901789
H122	H	0.211061	-1.217276	1.401789
H123	H	-0.284667	-1.637418	0.811140
H124	H	0.215333	-1.137418	1.311140
C125	C	-0.746389	-1.658507	0.229427
C126	C	-0.246389	-1.158507	0.729427
C127	C	-0.793813	-1.717411	0.296595
C128	C	-0.293813	-1.217411	0.796595
H129	H	-0.718371	-1.703890	0.184109
H130	H	-0.218371	-1.203890	0.684109
H131	H	-0.710008	-1.618669	0.269188
H132	H	-0.210008	-1.118669	0.769188
H133	H	-0.778628	-1.613026	0.189418
H134	H	-0.278628	-1.113026	0.689418
H135	H	-0.761573	-1.762886	0.336609
H136	H	-0.261573	-1.262886	0.836609
H137	H	-0.830198	-1.757267	0.256830
H138	H	-0.330198	-1.257267	0.756830
H139	H	-0.681780	-1.631399	0.382383
H140	H	-0.181780	-1.131399	0.882383
H141	H	-0.291784	-1.628016	1.108640
H142	H	0.208216	-1.128016	1.608640
H143	H	-0.422064	-1.455683	1.071315
H144	H	0.077936	-0.955683	1.571315
H145	H	-0.339859	-1.077900	0.557976
H146	H	0.160141	-0.577900	1.057976
H147	H	-0.955477	-1.321957	0.691474
H148	H	-0.455477	-0.821957	1.191474
H149	H	-0.422052	-1.455676	0.936770
H150	H	0.077948	-0.955676	1.436770
C151	C	-0.913417	-1.776155	0.238000
C152	C	-0.413417	-1.276155	0.738000
C153	C	-0.967095	-1.717478	0.296623
C154	C	-0.467095	-1.217478	0.796623
H155	H	-0.941414	-1.821552	0.192688
H156	H	-0.441414	-1.321552	0.692688
H157	H	-0.881191	-1.816076	0.283557
H158	H	-0.381191	-1.316076	0.783557
H159	H	-0.881250	-1.730629	0.197982
H160	H	-0.381250	-1.230629	0.697982
H161	H	-0.999258	-1.763005	0.336647
H162	H	-0.499258	-1.263005	0.836647
H163	H	-0.999334	-1.677555	0.251059
H164	H	-0.499334	-1.177555	0.751059
H165	H	-1.079280	-1.388902	0.624719
H166	H	-0.579280	-0.888902	1.124719
C167	C	-0.535087	-1.193460	0.425237
C168	C	-0.035087	-0.693460	0.925237
C169	C	-0.484311	-1.130702	0.366356
C170	C	0.015689	-0.630702	0.866356
H171	H	-0.569304	-1.230561	0.379837
H172	H	-0.069304	-0.730561	0.879837
H173	H	-0.565408	-1.150878	0.470652
H174	H	-0.065408	-0.650878	0.970652
H175	H	-0.504982	-1.241514	0.465144
H176	H	-0.004982	-0.741514	0.965144
H177	H	-0.514415	-1.082642	0.326455
H178	H	-0.014415	-0.582642	0.826455
H179	H	-0.453986	-1.173287	0.320923
H180	H	0.046014	-0.673287	0.820923
C181	C	-0.535128	-0.827664	0.425272
C182	C	-0.035128	-0.327664	0.925272
C183	C	-0.484337	-0.890421	0.366379
C184	C	0.015663	-0.390421	0.866379
H185	H	-0.569361	-0.790542	0.379878
H186	H	-0.069361	-0.290542	0.879878
H187	H	-0.505040	-0.779637	0.465176
H188	H	-0.005040	-0.279637	0.965176
H189	H	-0.565438	-0.870256	0.470690
H190	H	-0.065438	-0.370256	0.970690
H191	H	-0.454023	-0.847828	0.320966
H192	H	0.045977	-0.347828	0.820966
H193	H	-0.514428	-0.938453	0.326457
H194	H	-0.014428	-0.438453	0.826457
H195	H	-0.339862	-0.943355	0.557985
H196	H	0.160138	-0.443355	1.057985
H197	H	-0.681863	-1.388703	0.624676
H198	H	-0.181863	-0.888703	1.124676
