data_functionalizedCrystal
_audit_creation_method	'MofGen! by Chris Wilmer'
_symmetry_space_group_name_H-M	'P1'
_symmetry_Int_Tables_number	1
_symmetry_cell_setting	triclinic
loop_
_symmetry_equiv_pos_as_xyz
  x,y,z
_cell_length_a	6.817900
_cell_length_b	12.200863
_cell_length_c	12.200875
_cell_angle_alpha	93.006308
_cell_angle_beta	107.143593
_cell_angle_gamma	107.143441
loop_
_atom_site_label
_atom_site_type_symbol
_atom_site_fract_x
_atom_site_fract_y
_atom_site_fract_z
V1	V	-4.086881	-0.158973	-0.357778
O2	O	-4.054179	0.007371	-0.350847
O3	O	-4.056329	-0.314959	-0.355446
O4	O	-4.056333	-0.156645	-0.513764
O5	O	-4.054175	-0.152038	-0.191433
V6	V	-4.565883	-0.139062	-0.337868
O7	O	-4.358057	-0.202649	-0.401452
O8	O	-4.744905	-0.095387	-0.294193
O9	O	-4.373229	0.016923	-0.340199
O10	O	-4.715983	-0.305407	-0.344798
O11	O	-4.715986	-0.145997	-0.504212
O12	O	-4.373226	-0.141390	-0.181881
C13	C	-3.905095	-0.352981	-0.349832
C14	C	-3.961521	-0.480503	-0.348965
C15	C	-4.064793	-0.713978	-0.347388
C16	C	-4.007317	-0.584056	-0.348266
C17	C	-3.905097	-0.151035	-0.551781
C18	C	-3.961522	-0.150164	-0.679301
C19	C	-4.064787	-0.148571	-0.912775
C20	C	-4.007315	-0.149457	-0.782853
C21	C	-4.187806	0.054940	-0.345810
C22	C	-4.110619	0.182460	-0.346684
C23	C	-4.187803	-0.147004	-0.143858
C24	C	-4.110616	-0.147869	-0.016337
