data_functionalizedCrystal
_audit_creation_method	'MofGen! by Chris Wilmer'
_symmetry_space_group_name_H-M	'P1'
_symmetry_Int_Tables_number	1
_symmetry_cell_setting	triclinic
loop_
_symmetry_equiv_pos_as_xyz
  x,y,z
_cell_length_a	12.759401
_cell_length_b	18.215405
_cell_length_c	12.759393
_cell_angle_alpha	89.966515
_cell_angle_beta	89.979062
_cell_angle_gamma	90.024257
loop_
_atom_site_label
_atom_site_type_symbol
_atom_site_fract_x
_atom_site_fract_y
_atom_site_fract_z
Zn1	Zn	1.606208	-0.292919	-0.593998
Zn2	Zn	2.106208	0.207081	-0.093998
Zn3	Zn	1.606074	-0.416003	-0.418309
Zn4	Zn	2.106074	0.083997	0.081691
Zn5	Zn	1.430506	-0.292958	-0.418333
Zn6	Zn	1.930506	0.207042	0.081667
Zn7	Zn	1.430474	-0.415951	-0.593946
Zn8	Zn	1.930474	0.084049	-0.093946
O9	O	1.518316	-0.354458	-0.506147
O10	O	2.018316	0.145542	-0.006147
O11	O	1.753211	-0.309251	-0.570704
O12	O	2.253211	0.190749	-0.070704
O13	O	1.582743	-0.399718	-0.271291
O14	O	2.082743	0.100282	0.228709
O15	O	1.453883	-0.189968	-0.441668
O16	O	1.953883	0.310032	0.058332
O17	O	1.753113	-0.399681	-0.441626
O18	O	2.253113	0.100319	0.058374
O19	O	1.582970	-0.189940	-0.570728
O20	O	2.082970	0.310060	-0.070728
O21	O	1.453754	-0.309318	-0.271309
O22	O	1.953754	0.190682	0.228691
O23	O	1.283481	-0.309268	-0.441617
O24	O	1.783481	0.190732	0.058383
O25	O	1.453827	-0.399593	-0.740974
O26	O	1.953827	0.100407	-0.240974
O27	O	1.283457	-0.399631	-0.570639
O28	O	1.783457	0.100369	-0.070639
O29	O	1.582938	-0.309201	-0.741013
O30	O	2.082938	0.190799	-0.241013
O31	O	1.582711	-0.518980	-0.441576
O32	O	2.082711	-0.018980	0.058424
O33	O	1.453698	-0.518942	-0.570616
O34	O	1.953698	-0.018942	-0.070616
C35	C	1.245348	-0.354449	-0.506126
C36	C	1.745348	0.145551	-0.006126
C37	C	1.128572	-0.354463	-0.506142
C38	C	1.628572	0.145537	-0.006142
C39	C	1.073725	-0.401586	-0.573218
C40	C	1.573725	0.098414	-0.073218
C41	C	0.964000	-0.401589	-0.573239
C42	C	1.464000	0.098411	-0.073239
C43	C	0.963980	-0.307343	-0.439099
C44	C	1.463980	0.192657	0.060901
C45	C	1.073702	-0.307337	-0.439084
C46	C	1.573702	0.192663	0.060916
C47	C	1.518215	-0.545664	-0.506111
C48	C	2.018215	-0.045664	-0.006111
C49	C	1.518268	-0.627463	-0.506130
C50	C	2.018268	-0.127463	-0.006130
C51	C	1.585515	-0.815581	-0.573423
C52	C	2.085515	-0.315581	-0.073423
C53	C	1.585554	-0.892439	-0.573443
C54	C	2.085554	-0.392439	-0.073443
C55	C	1.451246	-0.892583	-0.438936
C56	C	1.951246	-0.392583	0.061064
C57	C	1.451203	-0.815725	-0.438922
C58	C	1.951203	-0.315725	0.061078
C59	C	1.518344	-0.777226	-0.506164
C60	C	2.018344	-0.277226	-0.006164
C61	C	1.518425	-0.930942	-0.506198
C62	C	2.018425	-0.430942	-0.006198
C63	C	1.518465	-1.014276	-0.506218
C64	C	2.018465	-0.514276	-0.006218
C65	C	1.518302	-0.693887	-0.506145
C66	C	2.018302	-0.193887	-0.006145
C67	C	1.792349	-0.354467	-0.506168
C68	C	2.292349	0.145533	-0.006168
C69	C	1.909125	-0.354471	-0.506178
C70	C	2.409125	0.145529	-0.006178
C71	C	1.518394	-0.354387	-0.780180
C72	C	2.018394	0.145613	-0.280180
C73	C	1.518428	-0.354357	-0.896957
C74	C	2.018428	0.145643	-0.396957
C75	C	1.518445	-0.162505	-0.506206
C76	C	2.018445	0.337495	-0.006206
C77	C	1.518501	-0.080706	-0.506231
C78	C	2.018501	0.419294	-0.006231
C79	C	1.585661	-0.307283	-0.951841
C80	C	2.085661	0.192717	-0.451841
C81	C	1.585679	-0.307251	-1.061565
C82	C	2.085679	0.192749	-0.561565
C83	C	1.451227	-0.401374	-1.061512
C84	C	1.951227	0.098626	-0.561512
C85	C	1.451205	-0.401402	-0.951790
C86	C	1.951205	0.098598	-0.451790
C87	C	1.518298	-0.354475	-0.233179
C88	C	2.018298	0.145525	0.266821
C89	C	1.518468	-0.354298	-0.116403
C90	C	2.018468	0.145702	0.383597
H91	H	0.919292	-0.268976	-0.384501
H92	H	1.419292	0.231024	0.115499
F93	F	1.132117	-0.451739	-0.644590
F94	F	1.632117	0.048261	-0.144590
F95	F	1.379699	-0.774903	-0.367339
F96	F	1.879699	-0.274903	0.132661
H97	H	1.640395	-0.268974	-0.907199
H98	H	2.140395	0.231026	-0.407199
H99	H	1.396584	-0.923938	-0.384188
H100	H	1.896584	-0.423938	0.115812
F101	F	1.379692	-0.451442	-1.119879
F102	F	1.879692	0.048558	-0.619879
F103	F	1.657244	-0.257153	-1.119971
F104	F	2.157244	0.242847	-0.619971
F105	F	1.656970	-0.774610	-0.644990
F106	F	2.156970	-0.274610	-0.144990
H107	H	1.396448	-0.439735	-0.907103
H108	H	1.896448	0.060265	-0.407103
H109	H	0.919349	-0.439960	-0.627861
H110	H	1.419349	0.060040	-0.127861
F111	F	1.132078	-0.257175	-0.367694
F112	F	1.632078	0.242825	0.132306
F113	F	1.657042	-0.933256	-0.645033
F114	F	2.157042	-0.433256	-0.145033
