data_functionalizedCrystal
_audit_creation_method	'MofGen! by Chris Wilmer'
_symmetry_space_group_name_H-M	'P1'
_symmetry_Int_Tables_number	1
_symmetry_cell_setting	triclinic
loop_
_symmetry_equiv_pos_as_xyz
  x,y,z
_cell_length_a	12.759395
_cell_length_b	12.827892
_cell_length_c	12.827885
_cell_angle_alpha	90.029786
_cell_angle_beta	89.981133
_cell_angle_gamma	89.983071
loop_
_atom_site_label
_atom_site_type_symbol
_atom_site_fract_x
_atom_site_fract_y
_atom_site_fract_z
Zn1	Zn	1.606247	0.415940	-0.590837
Zn2	Zn	2.106247	0.915940	-0.090837
Zn3	Zn	1.606140	0.590717	-0.416098
Zn4	Zn	2.106140	1.090717	0.083902
Zn5	Zn	1.430550	0.415995	-0.416112
Zn6	Zn	1.930550	0.915995	0.083888
Zn7	Zn	1.430535	0.590644	-0.590799
Zn8	Zn	1.930535	1.090644	-0.090799
O9	O	1.518368	0.503324	-0.503462
O10	O	2.018368	1.003324	-0.003462
O11	O	1.753254	0.439131	-0.567668
O12	O	2.253254	0.939131	-0.067668
O13	O	1.582809	0.567594	-0.269864
O14	O	2.082809	1.067594	0.230136
O15	O	1.453907	0.269752	-0.439312
O16	O	1.953907	0.769752	0.060688
O17	O	1.753175	0.567540	-0.439287
O18	O	2.253175	1.067540	0.060713
O19	O	1.582991	0.269711	-0.567682
O20	O	2.082991	0.769711	-0.067682
O21	O	1.453804	0.439226	-0.269874
O22	O	1.953804	0.939226	0.230126
O23	O	1.283527	0.439156	-0.439275
O24	O	1.783527	0.939156	0.060725
O25	O	1.453882	0.567415	-0.737040
O26	O	1.953882	1.067415	-0.237040
O27	O	1.283516	0.567469	-0.567616
O28	O	1.783516	1.067469	-0.067616
O29	O	1.582976	0.439061	-0.737068
O30	O	2.082976	0.939061	-0.237068
O31	O	1.582795	0.736943	-0.439250
O32	O	2.082795	1.236943	0.060750
O33	O	1.453779	0.736890	-0.567602
O34	O	1.953779	1.236890	-0.067602
C35	C	1.245400	0.503311	-0.503444
C36	C	1.745400	1.003311	-0.003444
C37	C	1.128624	0.503331	-0.503461
C38	C	1.628624	1.003331	-0.003461
C39	C	1.518302	0.774834	-0.503443
C40	C	2.018302	1.274834	-0.003443
C41	C	1.518370	0.890987	-0.503470
C42	C	2.018370	1.390987	-0.003470
C43	C	1.518439	0.503224	-0.776032
C44	C	2.018439	1.003224	-0.276032
C45	C	1.518470	0.503181	-0.892185
C46	C	2.018470	1.003181	-0.392185
C47	C	1.128651	0.637160	-0.636887
C48	C	1.628651	1.137160	-0.136887
C49	C	1.073804	0.704083	-0.703602
C50	C	1.573804	1.204083	-0.203602
C51	C	0.964082	0.704096	-0.703615
C52	C	1.464082	1.204096	-0.203615
C53	C	0.909205	0.637176	-0.636907
C54	C	1.409205	1.137176	-0.136907
C55	C	0.964052	0.570253	-0.570191
C56	C	1.464052	1.070253	-0.070191
C57	C	1.073777	0.570250	-0.570183
C58	C	1.573777	1.070250	-0.070183
C59	C	0.964025	0.436420	-0.436772
C60	C	1.464025	0.936420	0.063228
C61	C	1.073747	0.436411	-0.436753
C62	C	1.573747	0.936411	0.063247
C63	C	0.909148	0.369501	-0.370064
C64	C	1.409148	0.869501	0.129936
C65	C	0.963995	0.302582	-0.303341
C66	C	1.463995	0.802582	0.196659
C67	C	1.073724	0.302573	-0.303331
C68	C	1.573724	0.802573	0.196669
C69	C	1.128594	0.369489	-0.370037
C70	C	1.628594	0.869489	0.129963
C71	C	1.792401	0.503337	-0.503480
C72	C	2.292401	1.003337	-0.003480
C73	C	1.909178	0.503343	-0.503488
C74	C	2.409178	1.003343	-0.003488
C75	C	1.518463	0.230754	-0.503503
C76	C	2.018463	0.730754	-0.003503
C77	C	1.518503	0.114601	-0.503521
C78	C	2.018503	0.614601	-0.003521
C79	C	1.582287	0.942764	-0.440028
C80	C	2.082287	1.442764	0.059972
C81	C	1.582359	1.062814	-0.440054
C82	C	2.082359	1.562814	0.059946
C83	C	1.582357	0.439654	-0.943984
C84	C	2.082357	0.939654	-0.443984
C85	C	1.582390	0.439609	-1.064034
C86	C	2.082390	0.939609	-0.564034
C87	C	1.518357	0.503348	-0.231952
C88	C	2.018357	1.003348	0.268048
C89	C	1.518530	0.503097	-0.115799
C90	C	2.018530	1.003097	0.384201
H91	H	1.217992	0.637164	-0.636875
H92	H	1.717992	1.137164	-0.136875
H93	H	0.819864	0.637183	-0.636933
H94	H	1.319864	1.137183	-0.136933
C95	C	1.656146	0.882597	-0.366623
C96	C	2.156146	1.382597	0.133377
H97	H	1.696262	0.930649	-0.326828
H98	H	2.196262	1.430649	0.173172
H99	H	1.615920	0.840084	-0.321085
H100	H	2.115920	1.340084	0.178915
H101	H	1.701841	0.839952	-0.406675
H102	H	2.201841	1.339952	0.093325
C103	C	1.444648	0.576592	-1.055642
C104	C	1.944648	1.076592	-0.555642
H105	H	1.404597	0.616427	-1.103692
H106	H	1.904597	1.116427	-0.603692
H107	H	1.398908	0.536608	-1.013055
H108	H	1.898908	1.036608	-0.513055
H109	H	1.484870	0.622105	-1.013070
H110	H	1.984870	1.122105	-0.513070
C111	C	1.656282	1.122957	-0.366672
C112	C	2.156282	1.622957	0.133328
H113	H	1.646636	1.195754	-0.376320
H114	H	2.146636	1.695754	0.123680
H115	H	1.640950	1.105184	-0.296426
H116	H	2.140950	1.605184	0.203574
H117	H	1.726875	1.105051	-0.382012
H118	H	2.226875	1.605051	0.117988
H119	H	1.118374	0.248068	-0.249009
H120	H	1.618374	0.748068	0.250991
H121	H	1.118497	0.758566	-0.757916
H122	H	1.618497	1.258566	-0.257916
C123	C	0.788458	0.369518	-0.370073
C124	C	1.288458	0.869518	0.129927
H125	H	0.763650	0.418966	-0.419351
H126	H	1.263650	0.918966	0.080649
H127	H	0.763651	0.302110	-0.388266
H128	H	1.263651	0.802110	0.111734
H129	H	0.763614	0.387511	-0.302599
H130	H	1.263614	0.887511	0.197401
C131	C	0.903748	0.777662	-0.777046
C132	C	1.403748	1.277662	-0.277046
H133	H	0.952140	0.817505	-0.816783
H134	H	1.452140	1.317505	-0.316783
H135	H	0.860995	0.737705	-0.822635
H136	H	1.360995	1.237705	-0.322635
H137	H	0.860898	0.823165	-0.737026
H138	H	1.360898	1.323165	-0.237026
H139	H	0.919306	0.248096	-0.249038
H140	H	1.419306	0.748096	0.250962
H141	H	1.463774	1.070082	-0.557835
H142	H	1.963774	1.570082	-0.057835
H143	H	1.463792	0.557527	-0.936715
H144	H	1.963792	1.057527	-0.436715
C145	C	1.249284	0.369478	-0.370024
C146	C	1.749284	0.869478	0.129976
H147	H	1.274093	0.320043	-0.320734
H148	H	1.774093	0.820043	0.179266
H149	H	1.274137	0.351497	-0.437491
H150	H	1.774137	0.851497	0.062509
H151	H	1.274081	0.436894	-0.351820
H152	H	1.774081	0.936894	0.148180
C153	C	1.444515	0.951153	-0.576879
C154	C	1.944515	1.451153	-0.076879
H155	H	1.404410	0.903102	-0.616685
H156	H	1.904410	1.403102	-0.116685
H157	H	1.398826	0.993807	-0.536839
H158	H	1.898826	1.493807	-0.036839
H159	H	1.484753	0.993658	-0.622422
H160	H	1.984753	1.493658	-0.122422
C161	C	1.656218	0.366227	-0.883838
C162	C	2.156218	0.866227	-0.383838
H163	H	1.646512	0.375896	-0.811041
H164	H	2.146512	0.875896	-0.311041
H165	H	1.640893	0.295989	-0.901683
H166	H	2.140893	0.795989	-0.401683
H167	H	1.726828	0.381512	-0.901676
H168	H	2.226828	0.881512	-0.401676
C169	C	1.656287	0.366137	-1.124203
C170	C	2.156287	0.866137	-0.624203
H171	H	1.646612	0.375742	-1.196997
H172	H	2.146612	0.875742	-0.696997
H173	H	1.726882	0.381426	-1.106366
H174	H	2.226882	0.881426	-0.606366
H175	H	1.640942	0.295908	-1.106380
H176	H	2.140942	0.795908	-0.606380
