data_functionalizedCrystal
_audit_creation_method	'MofGen! by Chris Wilmer'
_symmetry_space_group_name_H-M	'P1'
_symmetry_Int_Tables_number	1
_symmetry_cell_setting	triclinic
loop_
_symmetry_equiv_pos_as_xyz
  x,y,z
_cell_length_a	12.759401
_cell_length_b	17.637651
_cell_length_c	12.759401
_cell_angle_alpha	101.231642
_cell_angle_beta	90.003969
_cell_angle_gamma	101.219778
loop_
_atom_site_label
_atom_site_type_symbol
_atom_site_fract_x
_atom_site_fract_y
_atom_site_fract_z
Zn1	Zn	1.521522	-0.314861	0.509275
Zn2	Zn	2.021522	0.185139	1.009275
Zn3	Zn	1.485954	-0.447039	0.298034
Zn4	Zn	1.985954	0.052961	0.798034
Zn5	Zn	1.345871	-0.314852	0.333616
Zn6	Zn	1.845871	0.185148	0.833616
Zn7	Zn	1.310308	-0.447029	0.473678
Zn8	Zn	1.810308	0.052971	0.973678
O9	O	1.415914	-0.380945	0.403651
O10	O	1.915914	0.119055	0.903651
O11	O	1.663823	-0.332402	0.481260
O12	O	2.163823	0.167598	0.981260
O13	O	1.467370	-0.429504	0.155733
O14	O	1.967370	0.070496	0.655733
O15	O	1.398940	-0.204220	0.386707
O16	O	1.898940	0.295780	0.886707
O17	O	1.637691	-0.429513	0.326062
O18	O	2.137691	0.070487	0.826062
O19	O	1.527990	-0.204226	0.515762
O20	O	2.027990	0.295774	1.015762
O21	O	1.364452	-0.332388	0.181875
O22	O	1.864452	0.167612	0.681875
O23	O	1.194135	-0.332378	0.352190
O24	O	1.694135	0.167622	0.852190
O25	O	1.338328	-0.429496	0.625421
O26	O	1.838328	0.070504	1.125421
O27	O	1.168007	-0.429488	0.455092
O28	O	1.668007	0.070512	0.955092
O29	O	1.493506	-0.332392	0.651574
O30	O	1.993506	0.167608	1.151574
O31	O	1.432886	-0.557671	0.291545
O32	O	1.932886	-0.057671	0.791545
O33	O	1.303840	-0.557664	0.420590
O34	O	1.803840	-0.057664	0.920590
C35	C	1.142950	-0.380931	0.403640
C36	C	1.642950	0.119069	0.903640
C37	C	1.026170	-0.380945	0.403655
C38	C	1.526170	0.119055	0.903655
C39	C	0.984891	-0.330471	0.484545
C40	C	1.484891	0.169529	0.984545
C41	C	0.875165	-0.330479	0.484550
C42	C	1.375165	0.169521	0.984550
C43	C	0.848005	-0.431442	0.322769
C44	C	1.348005	0.068558	0.822769
C45	C	0.957730	-0.431429	0.322761
C46	C	1.457730	0.068571	0.822761
C47	C	1.360673	-0.586353	0.348367
C48	C	1.860673	-0.086353	0.848367
C49	C	1.337136	-0.674228	0.324751
C50	C	1.837136	-0.174228	0.824751
C51	C	1.595400	-0.962958	0.583388
C52	C	2.095400	-0.462958	1.083388
C53	C	1.573251	-1.045529	0.561179
C54	C	2.073251	-0.545529	1.061179
C55	C	1.438960	-1.045630	0.426664
C56	C	1.938960	-0.545630	0.926664
C57	C	1.461102	-0.963057	0.448858
C58	C	1.961102	-0.463057	0.948858
C59	C	1.539322	-0.921727	0.527222
C60	C	2.039322	-0.421727	1.027222
C61	C	1.405025	-0.921826	0.392692
C62	C	1.905025	-0.421826	0.892692
C63	C	1.427161	-0.839260	0.414888
C64	C	1.927161	-0.339260	0.914888
C65	C	1.505375	-0.797925	0.493251
C66	C	2.005375	-0.297925	0.993251
C67	C	1.561459	-0.839161	0.549419
C68	C	2.061459	-0.339161	1.049419
C69	C	1.326800	-0.963157	0.314333
C70	C	1.826800	-0.463157	0.814333
C71	C	1.270722	-0.921927	0.258167
C72	C	1.770722	-0.421927	0.758167
C73	C	1.292863	-0.839359	0.280358
C74	C	1.792863	-0.339359	0.780358
C75	C	1.371077	-0.798024	0.358721
C76	C	1.871077	-0.298024	0.858721
C77	C	1.236780	-0.798123	0.224190
C78	C	1.736780	-0.298123	0.724190
C79	C	1.258916	-0.715557	0.246387
C80	C	1.758916	-0.215557	0.746387
C81	C	1.393214	-0.715458	0.380917
C82	C	1.893214	-0.215458	0.880917
C83	C	1.689943	-0.380959	0.403663
C84	C	2.189943	0.119041	0.903663
C85	C	1.806718	-0.380965	0.403668
C86	C	2.306718	0.119035	0.903668
C87	C	1.415918	-0.380944	0.677684
C88	C	1.915918	0.119056	1.177684
C89	C	1.415919	-0.380944	0.794461
C90	C	1.915919	0.119056	1.294461
C91	C	1.471400	-0.174735	0.459174
C92	C	1.971400	0.325265	0.959174
C93	C	1.495044	-0.086860	0.482835
C94	C	1.995044	0.413140	0.982835
C95	C	1.496701	-0.330390	0.972672
C96	C	1.996701	0.169610	1.472672
C97	C	1.496710	-0.330390	0.862948
C98	C	1.996710	0.169610	1.362948
C99	C	1.335120	-0.431506	0.835702
C100	C	1.835120	0.068494	1.335702
C101	C	1.335116	-0.431510	0.945423
C102	C	1.835116	0.068490	1.445423
C103	C	1.415900	-0.380960	1.130680
C104	C	1.915900	0.119040	1.630680
C105	C	1.415906	-0.380947	1.013906
C106	C	1.915906	0.119053	1.513906
H107	H	0.991339	-0.472532	0.256885
H108	H	1.491339	0.027468	0.756885
H109	H	1.562485	-0.289218	1.028428
H110	H	2.062485	0.210782	1.528428
H111	H	0.841562	-0.289376	0.550418
H112	H	1.341562	0.210624	1.050418
N113	N	0.774181	-0.485901	0.235537
N114	N	1.274181	0.014099	0.735537
H115	H	0.816985	-0.517873	0.184291
H116	H	1.316985	-0.017873	0.684291
H117	H	0.737308	-0.453670	0.195666
H118	H	1.237308	0.046330	0.695666
H119	H	1.562502	-0.289222	0.829380
H120	H	2.062502	0.210778	1.329380
H121	H	1.040613	-0.289360	0.550411
H122	H	1.540613	0.210640	1.050411
N123	N	1.354606	-1.090213	0.342141
N124	N	1.854606	-0.590213	0.842141
H125	H	1.374844	-1.075851	0.270952
H126	H	1.874844	-0.575851	0.770952
H127	H	1.283401	-1.075859	0.362331
H128	H	1.783401	-0.575859	0.862331
N129	N	1.477584	-0.670865	0.465430
N130	N	1.977584	-0.170865	0.965430
H131	H	1.548823	-0.685196	0.445324
H132	H	2.048823	-0.185196	0.945324
H133	H	1.457271	-0.685236	0.536594
H134	H	1.957271	-0.185236	1.036594
N135	N	1.529255	-0.708871	0.517177
N136	N	2.029255	-0.208871	1.017177
H137	H	1.606684	-0.688958	0.503280
H138	H	2.106684	-0.188958	1.003280
H139	H	1.515159	-0.689030	0.594577
H140	H	2.015159	-0.189030	1.094577
N141	N	1.645837	-0.794575	0.633927
N142	N	2.145837	-0.294575	1.133927
H143	H	1.678012	-0.833221	0.666139
H144	H	2.178012	-0.333221	1.166139
H145	H	1.612217	-0.760326	0.691718
H146	H	2.112217	-0.260326	1.191718
N147	N	1.679779	-0.918371	0.667897
N148	N	2.179779	-0.418371	1.167897
H149	H	1.711954	-0.957018	0.700109
H150	H	2.211954	-0.457018	1.200109
H151	H	1.646158	-0.884122	0.725688
H152	H	2.146158	-0.384122	1.225688
N153	N	1.633746	-1.090001	0.621755
N154	N	2.133746	-0.590001	1.121755
H155	H	1.686657	-1.051287	0.674762
H156	H	2.186657	-0.551287	1.174762
H157	H	1.673220	-1.124240	0.569819
H158	H	2.173220	-0.624240	1.069819
H159	H	1.308769	-1.030388	0.296274
H160	H	1.808769	-0.530388	0.796274
H161	H	1.207033	-0.955589	0.194366
H162	H	1.707033	-0.455589	0.694366
H163	H	1.173086	-0.831786	0.160394
H164	H	1.673086	-0.331786	0.660394
H165	H	1.269342	-0.472672	0.779931
H166	H	1.769342	0.027328	1.279931
N167	N	1.198432	-0.671080	0.185816
N168	N	1.698432	-0.171080	0.685816
H169	H	1.145523	-0.709790	0.132804
H170	H	1.645523	-0.209790	0.632804
H171	H	1.250425	-0.636811	0.146449
H172	H	1.750425	-0.136811	0.646449
N173	N	1.247973	-0.486046	0.989906
N174	N	1.747973	0.013954	1.489906
H175	H	1.196790	-0.518073	0.929876
H176	H	1.696790	-0.018073	1.429876
H177	H	1.208013	-0.453864	1.044096
H178	H	1.708013	0.046136	1.544096
