data_functionalizedCrystal
_audit_creation_method	'MofGen! by Chris Wilmer'
_symmetry_space_group_name_H-M	'P1'
_symmetry_Int_Tables_number	1
_symmetry_cell_setting	triclinic
loop_
_symmetry_equiv_pos_as_xyz
  x,y,z
_cell_length_a	17.077404
_cell_length_b	12.827892
_cell_length_c	17.077396
_cell_angle_alpha	89.974933
_cell_angle_beta	89.980499
_cell_angle_gamma	90.015617
loop_
_atom_site_label
_atom_site_type_symbol
_atom_site_fract_x
_atom_site_fract_y
_atom_site_fract_z
Zn1	Zn	1.200096	-0.416027	-0.443861
Zn2	Zn	1.533429	-0.082693	-0.110528
Zn3	Zn	1.866762	0.250640	0.222805
Zn4	Zn	1.200020	-0.590789	-0.312603
Zn5	Zn	1.533353	-0.257456	0.020730
Zn6	Zn	1.866686	0.075878	0.354064
Zn7	Zn	1.068827	-0.416063	-0.312609
Zn8	Zn	1.402161	-0.082730	0.020724
Zn9	Zn	1.735494	0.250603	0.354057
Zn10	Zn	1.068812	-0.590727	-0.443827
Zn11	Zn	1.402146	-0.257394	-0.110493
Zn12	Zn	1.735479	0.075940	0.222840
O13	O	1.134439	-0.503402	-0.378225
O14	O	1.467772	-0.170068	-0.044892
O15	O	1.801105	0.163265	0.288442
O16	O	1.309932	-0.439220	-0.426462
O17	O	1.643266	-0.105887	-0.093128
O18	O	1.976599	0.227447	0.240205
O19	O	1.182591	-0.567653	-0.202757
O20	O	1.515925	-0.234319	0.130576
O21	O	1.849258	0.099014	0.463910
O22	O	1.086278	-0.269823	-0.330037
O23	O	1.419612	0.063511	0.003296
O24	O	1.752945	0.396844	0.336629
O25	O	1.309877	-0.567617	-0.330027
O26	O	1.643210	-0.234284	0.003307
O27	O	1.976543	0.099050	0.336640
O28	O	1.182720	-0.269796	-0.426468
O29	O	1.516054	0.063538	-0.093134
O30	O	1.849387	0.396871	0.240199
O31	O	1.086205	-0.439282	-0.202762
O32	O	1.419538	-0.105949	0.130572
O33	O	1.752871	0.227384	0.463905
O34	O	0.958978	-0.439222	-0.330004
O35	O	1.292312	-0.105889	0.003330
O36	O	1.625645	0.227444	0.336663
O37	O	1.086253	-0.567511	-0.553678
O38	O	1.419586	-0.234178	-0.220345
O39	O	1.752920	0.099155	0.112988
O40	O	0.958968	-0.567547	-0.426409
O41	O	1.292301	-0.234214	-0.093075
O42	O	1.625634	0.099120	0.240258
O43	O	1.182706	-0.439160	-0.553704
O44	O	1.516039	-0.105826	-0.220370
O45	O	1.849373	0.227507	0.112963
O46	O	1.182577	-0.737017	-0.329993
O47	O	1.515910	-0.403684	0.003340
O48	O	1.849244	-0.070350	0.336673
O49	O	1.086179	-0.736971	-0.426403
O50	O	1.419513	-0.403638	-0.093069
O51	O	1.752846	-0.070305	0.240264
C52	C	0.930491	-0.503383	-0.378203
C53	C	1.263824	-0.170049	-0.044870
C54	C	1.597158	0.163284	0.288463
C55	C	0.843241	-0.503400	-0.378213
C56	C	1.176574	-0.170066	-0.044879
C57	C	1.509908	0.163267	0.288454
C58	C	1.134390	-0.774912	-0.378211
C59	C	1.467723	-0.441578	-0.044877
C60	C	1.801056	-0.108245	0.288456
C61	C	1.134440	-0.891065	-0.378231
C62	C	1.467774	-0.557731	-0.044897
C63	C	1.801107	-0.224398	0.288436
C64	C	0.802266	-0.570319	-0.428330
C65	C	1.135599	-0.236986	-0.094997
C66	C	1.468932	0.096347	0.238336
C67	C	0.720285	-0.570321	-0.428343
C68	C	1.053619	-0.236988	-0.095010
C69	C	1.386952	0.096345	0.238324
C70	C	0.679282	-0.503409	-0.378233
C71	C	1.012615	-0.170075	-0.044900
C72	C	1.345948	0.163258	0.288433
C73	C	0.720263	-0.436482	-0.328114
C74	C	1.053596	-0.103149	0.005220
C75	C	1.386929	0.230185	0.338553
C76	C	0.802242	-0.436475	-0.328106
C77	C	1.135575	-0.103142	0.005228
C78	C	1.468908	0.230191	0.338561
C79	C	0.549393	-0.436502	-0.328133
C80	C	0.882726	-0.103169	0.005201
C81	C	1.216059	0.230164	0.338534
C82	C	0.467408	-0.436510	-0.328139
C83	C	0.800741	-0.103177	0.005194
C84	C	1.134075	0.230156	0.338527
C85	C	0.467436	-0.570349	-0.428370
C86	C	0.800770	-0.237015	-0.095036
C87	C	1.134103	0.096318	0.238297
C88	C	0.549415	-0.570342	-0.428362
C89	C	0.882749	-0.237009	-0.095028
C90	C	1.216082	0.096325	0.238305
C91	C	0.590391	-0.503416	-0.378241
C92	C	0.923724	-0.170083	-0.044907
C93	C	1.257057	0.163250	0.288426
C94	C	1.182142	-0.942753	-0.425990
C95	C	1.515475	-0.609419	-0.092657
C96	C	1.848809	-0.276086	0.240676
C97	C	1.182195	-1.062803	-0.426012
C98	C	1.515529	-0.729470	-0.092679
C99	C	1.848862	-0.396136	0.240655
C100	C	1.339183	-0.503421	-0.378247
C101	C	1.672516	-0.170088	-0.044914
C102	C	2.005850	0.163245	0.288419
C103	C	1.426433	-0.503430	-0.378257
C104	C	1.759766	-0.170096	-0.044923
C105	C	2.093099	0.163237	0.288410
C106	C	1.134486	-0.503325	-0.582970
C107	C	1.467820	-0.169991	-0.249636
C108	C	1.801153	0.163342	0.083697
C109	C	1.134506	-0.503292	-0.670219
C110	C	1.467840	-0.169958	-0.336886
C111	C	1.801173	0.163375	-0.003553
C112	C	1.134509	-0.230831	-0.378257
C113	C	1.467843	0.102502	-0.044924
C114	C	1.801176	0.435835	0.288410
C115	C	1.134540	-0.114678	-0.378270
C116	C	1.467873	0.218655	-0.044937
C117	C	1.801206	0.551988	0.288396
C118	C	1.184731	-0.436454	-0.711224
C119	C	1.518065	-0.103120	-0.377891
C120	C	1.851398	0.230213	-0.044557
C121	C	1.184741	-0.436419	-0.793205
C122	C	1.518074	-0.103085	-0.459871
C123	C	1.851408	0.230248	-0.126538
C124	C	1.134529	-0.503228	-0.834179
C125	C	1.467862	-0.169895	-0.500846
C126	C	1.801195	0.163438	-0.167512
C127	C	1.084298	-0.570069	-0.793168
C128	C	1.417632	-0.236736	-0.459835
C129	C	1.750965	0.096597	-0.126502
C130	C	1.084285	-0.570098	-0.711189
C131	C	1.417619	-0.236765	-0.377856
C132	C	1.750952	0.096568	-0.044523
C133	C	1.084330	-0.570007	-0.964039
C134	C	1.417663	-0.236673	-0.630705
C135	C	1.750997	0.096660	-0.297372
C136	C	1.084344	-0.569980	-1.046023
C137	C	1.417677	-0.236646	-0.712690
C138	C	1.751010	0.096687	-0.379357
C139	C	1.184785	-0.436327	-1.046054
C140	C	1.518119	-0.102994	-0.712720
C141	C	1.851452	0.230339	-0.379387
C142	C	1.184772	-0.436356	-0.964075
C143	C	1.518106	-0.103023	-0.630741
C144	C	1.851439	0.230311	-0.297408
C145	C	1.134543	-0.503199	-0.923070
C146	C	1.467876	-0.169865	-0.589737
C147	C	1.801209	0.163468	-0.256403
C148	C	1.134437	-0.503403	-0.174277
C149	C	1.467770	-0.170070	0.159056
C150	C	1.801103	0.163264	0.492389
C151	C	1.134568	-0.503141	-0.087028
C152	C	1.467902	-0.169808	0.246305
C153	C	1.801235	0.163525	0.579639
H154	H	0.835645	-0.624811	-0.469133
H155	H	1.168978	-0.291478	-0.135799
H156	H	1.502312	0.041856	0.197534
F157	F	1.030868	-0.641147	-0.920400
F158	F	1.364201	-0.307813	-0.587067
F159	F	1.697534	0.025520	-0.253734
H160	H	0.686927	-0.624815	-0.469153
H161	H	1.020260	-0.291482	-0.135820
H162	H	1.353594	0.041852	0.197514
H163	H	1.223037	-1.107254	-0.466898
H164	H	1.556371	-0.773920	-0.133565
H165	H	1.889704	-0.440587	0.199769
H166	H	1.222939	-0.898130	-0.466867
H167	H	1.556272	-0.564797	-0.133533
H168	H	1.889605	-0.231464	0.199800
F169	F	1.081160	-1.056588	-0.324818
F170	F	1.414493	-0.723255	0.008516
F171	F	1.747826	-0.389922	0.341849
F172	F	1.081107	-0.949387	-0.324809
F173	F	1.414440	-0.616053	0.008524
F174	F	1.747774	-0.282720	0.341858
F175	F	1.238179	-0.365350	-0.667623
F176	F	1.571512	-0.032016	-0.334290
F177	F	1.904846	0.301317	-0.000957
F178	F	0.593000	-0.365271	-0.274789
F179	F	0.926333	-0.031937	0.058545
F180	F	1.259666	0.301396	0.391878
F181	F	0.845850	-0.365248	-0.274765
F182	F	1.179184	-0.031915	0.058568
F183	F	1.512517	0.301418	0.391901
F184	F	0.676621	-0.365261	-0.274788
F185	F	1.009955	-0.031928	0.058545
F186	F	1.343288	0.301405	0.391879
F187	F	1.238218	-0.365256	-0.920468
F188	F	1.571552	-0.031923	-0.587135
F189	F	1.904885	0.301411	-0.253802
F190	F	1.238224	-0.365316	-0.836841
F191	F	1.571558	-0.031983	-0.503508
F192	F	1.904891	0.301351	-0.170174
H193	H	1.043455	-0.624379	-1.079382
H194	H	1.376788	-0.291046	-0.746049
H195	H	1.710121	0.042287	-0.412716
F196	F	0.593053	-0.641565	-0.481689
F197	F	0.926386	-0.308231	-0.148355
F198	F	1.259720	0.025102	0.184978
H199	H	1.225683	-0.381900	-1.079444
H200	H	1.559016	-0.048566	-0.746110
H201	H	1.892349	0.284767	-0.412777
F202	F	1.030855	-0.641169	-0.836779
F203	F	1.364189	-0.307836	-0.503445
F204	F	1.697522	0.025497	-0.170112
F205	F	0.423827	-0.641565	-0.481721
F206	F	0.757160	-0.308232	-0.148388
F207	F	1.090493	0.025102	0.184945
F208	F	0.423770	-0.365299	-0.274804
F209	F	0.757104	-0.031965	0.058529
F210	F	1.090437	0.301368	0.391863
H211	H	1.043379	-0.624514	-0.677804
H212	H	1.376713	-0.291181	-0.344471
H213	H	1.710046	0.042152	-0.011138
