data_functionalizedCrystal
_audit_creation_method	'MofGen! by Chris Wilmer'
_symmetry_space_group_name_H-M	'P1'
_symmetry_Int_Tables_number	1
_symmetry_cell_setting	triclinic
loop_
_symmetry_equiv_pos_as_xyz
  x,y,z
_cell_length_a	17.699104
_cell_length_b	19.288859
_cell_length_c	18.366186
_cell_angle_alpha	89.994011
_cell_angle_beta	90.010768
_cell_angle_gamma	96.787378
loop_
_atom_site_label
_atom_site_type_symbol
_atom_site_fract_x
_atom_site_fract_y
_atom_site_fract_z
O1	O	-1.003945	0.087906	-0.060578
O2	O	-0.670612	0.421239	0.272755
O3	O	-0.337278	0.754573	0.606089
O4	O	-0.783553	0.099319	-0.060573
O5	O	-0.450219	0.432652	0.272760
O6	O	-0.116886	0.765986	0.606094
O7	O	-0.900120	-0.007510	-0.060571
O8	O	-0.566786	0.325823	0.272762
O9	O	-0.233453	0.659157	0.606095
O10	O	-0.887378	0.194735	-0.060580
O11	O	-0.554045	0.528068	0.272754
O12	O	-0.220711	0.861402	0.606087
O13	O	-0.900100	-0.007515	0.060528
O14	O	-0.566766	0.325818	0.393861
O15	O	-0.233433	0.659151	0.727195
O16	O	-0.783533	0.099314	0.060526
O17	O	-0.450199	0.432647	0.393860
O18	O	-0.116866	0.765980	0.727193
O19	O	-1.003925	0.087901	0.060521
O20	O	-0.670592	0.421234	0.393855
O21	O	-0.337259	0.754568	0.727188
Zn22	Zn	-0.893726	0.093606	0.079751
Zn23	Zn	-0.560393	0.426940	0.413084
Zn24	Zn	-0.227059	0.760273	0.746418
Zn25	Zn	-0.893752	0.093613	-0.079803
Zn26	Zn	-0.560419	0.426947	0.253531
Zn27	Zn	-0.227085	0.760280	0.586864
O28	O	-0.887358	0.194730	0.060520
O29	O	-0.554025	0.528063	0.393853
O30	O	-0.220692	0.861397	0.727186
C31	C	-0.755347	0.098905	-0.000023
C32	C	-0.422013	0.432238	0.333311
C33	C	-0.088680	0.765572	0.666644
C34	C	-0.671331	0.097671	-0.000021
C35	C	-0.337998	0.431004	0.333313
C36	C	-0.004664	0.764337	0.666646
C37	C	-0.146380	0.153417	-0.000023
C38	C	0.186953	0.486750	0.333310
C39	C	0.520286	0.820083	0.666643
C40	C	-0.225322	0.154572	-0.000027
C41	C	0.108011	0.487905	0.333307
C42	C	0.441344	0.821239	0.666640
C43	C	-0.274030	0.091859	-0.000025
C44	C	0.059304	0.425193	0.333309
C45	C	0.392637	0.758526	0.666642
C46	C	-0.243791	0.027987	-0.000027
C47	C	0.089542	0.361320	0.333307
C48	C	0.422875	0.694654	0.666640
C49	C	-0.164850	0.026832	-0.000029
C50	C	0.168483	0.360166	0.333305
C51	C	0.501816	0.693499	0.666638
C52	C	-0.562151	0.032643	-0.000020
C53	C	-0.228817	0.365976	0.333314
C54	C	0.104516	0.699309	0.666647
C55	C	-0.641096	0.033802	-0.000015
C56	C	-0.307763	0.367136	0.333318
C57	C	0.025571	0.700469	0.666651
C58	C	-0.622623	0.160383	-0.000018
C59	C	-0.289289	0.493716	0.333316
C60	C	0.044044	0.827049	0.666649
C61	C	-0.543682	0.159228	-0.000020
C62	C	-0.210348	0.492561	0.333314
C63	C	0.122985	0.825894	0.666647
C64	C	-0.513450	0.095356	-0.000026
C65	C	-0.180117	0.428689	0.333308
C66	C	0.153216	0.762023	0.666641
C67	C	-0.427852	0.094104	-0.000023
C68	C	-0.094519	0.427437	0.333310
C69	C	0.238815	0.760770	0.666643
C70	C	-0.359626	0.093111	-0.000021
C71	C	-0.026293	0.426444	0.333312
C72	C	0.307040	0.759778	0.666645
C73	C	-0.899700	-0.033390	-0.000022
C74	C	-0.566367	0.299944	0.333311
C75	C	-0.233034	0.633277	0.666644
C76	C	-0.898472	-0.110495	-0.000023
C77	C	-0.565139	0.222838	0.333310
C78	C	-0.231805	0.556172	0.666643
C79	C	-0.958559	-0.674461	-0.000044
C80	C	-0.625225	-0.341127	0.333289
C81	C	-0.291892	-0.007794	0.666623
C82	C	-0.959720	-0.602013	-0.000038
C83	C	-0.626386	-0.268679	0.333296
C84	C	-0.293053	0.064654	0.666629
C85	C	-0.891323	-0.557392	-0.000036
C86	C	-0.557990	-0.224058	0.333297
C87	C	-0.224657	0.109275	0.666630
C88	C	-0.821761	-0.585224	-0.000023
C89	C	-0.488428	-0.251890	0.333310
C90	C	-0.155094	0.081443	0.666644
C91	C	-0.820602	-0.657670	-0.000022
C92	C	-0.487269	-0.324337	0.333311
C93	C	-0.153936	0.008996	0.666645
C94	C	-0.840321	-0.436180	-0.042460
C95	C	-0.506987	-0.102846	0.290873
C96	C	-0.173654	0.230487	0.624206
C97	C	-0.841482	-0.363735	-0.042466
C98	C	-0.508149	-0.030401	0.290868
C99	C	-0.174816	0.302932	0.624201
C100	C	-0.894895	-0.333941	-0.000036
C101	C	-0.561561	-0.000608	0.333298
C102	C	-0.228228	0.332725	0.666631
C103	C	-0.947158	-0.376603	0.042390
C104	C	-0.613825	-0.043270	0.375724
C105	C	-0.280491	0.290063	0.709057
C106	C	-0.945999	-0.449050	0.042391
C107	C	-0.612666	-0.115717	0.375725
C108	C	-0.279332	0.217617	0.709058
C109	C	-0.892572	-0.478834	-0.000037
C110	C	-0.559239	-0.145501	0.333297
C111	C	-0.225906	0.187832	0.666630
C112	C	-0.965711	-0.227561	-0.000037
C113	C	-0.632378	0.105772	0.333296
C114	C	-0.299044	0.439106	0.666630
C115	C	-0.966869	-0.155111	-0.000026
C116	C	-0.633536	0.178222	0.333307
C117	C	-0.300202	0.511555	0.666641
C118	C	-0.828909	-0.138324	-0.000019
C119	C	-0.495575	0.195010	0.333315
C120	C	-0.162242	0.528343	0.666648
C121	C	-0.827753	-0.210772	-0.000022
C122	C	-0.494419	0.122561	0.333311
C123	C	-0.161086	0.455895	0.666644
C124	C	-0.896156	-0.255387	-0.000035
C125	C	-0.562823	0.077947	0.333298
C126	C	-0.229489	0.411280	0.666632
C127	C	-0.032131	0.088315	-0.000027
C128	C	0.301202	0.421648	0.333306
C129	C	0.634535	0.754982	0.666640
C130	C	-0.116147	0.089549	-0.000023
C131	C	0.217187	0.422882	0.333310
C132	C	0.550520	0.756216	0.666643
C133	C	-0.887777	0.220610	-0.000031
C134	C	-0.554444	0.553943	0.333302
C135	C	-0.221111	0.887276	0.666635
C136	C	-0.889006	0.297715	-0.000035
C137	C	-0.555672	0.631048	0.333299
C138	C	-0.222339	0.964382	0.666632
N139	N	-0.893714	0.093601	0.188642
N140	N	-0.560380	0.426935	0.521975
N141	N	-0.227047	0.760268	0.855309
N142	N	-0.893770	0.093613	-0.188694
N143	N	-0.560437	0.426946	0.144639
N144	N	-0.227104	0.760280	0.477973
C145	C	-0.945346	0.046321	0.226743
C146	C	-0.612013	0.379654	0.560077
C147	C	-0.278680	0.712987	0.893410
C148	C	-0.945351	0.046317	0.302971
C149	C	-0.612018	0.379651	0.636304
C150	C	-0.278684	0.712984	0.969638
C151	C	-0.893730	0.093607	0.341095
C152	C	-0.560397	0.426940	0.674428
C153	C	-0.227064	0.760274	1.007761
C154	C	-0.842088	0.140891	0.302984
C155	C	-0.508755	0.474225	0.636318
C156	C	-0.175421	0.807558	0.969651
C157	C	-0.842080	0.140888	0.226758
C158	C	-0.508746	0.474222	0.560091
C159	C	-0.175413	0.807555	0.893425
C160	C	-0.883597	0.156882	0.461853
C161	C	-0.550264	0.490216	0.795186
C162	C	-0.216931	0.823549	1.128519
C163	C	-0.883611	0.156886	0.538078
C164	C	-0.550278	0.490219	0.871411
C165	C	-0.216944	0.823553	1.204744
C166	C	-0.893752	0.093616	0.576202
C167	C	-0.560419	0.426949	0.909536
C168	C	-0.227085	0.760282	1.242869
C169	C	-0.903895	0.030339	0.538093
C170	C	-0.570562	0.363672	0.871426
C171	C	-0.237229	0.697005	1.204759
C172	C	-0.903887	0.030336	0.461866
C173	C	-0.570554	0.363669	0.795200
C174	C	-0.237220	0.697003	1.128533
C175	C	-0.893733	0.093615	0.423750
C176	C	-0.560400	0.426948	0.757083
C177	C	-0.227067	0.760282	1.090416
C178	C	-0.945393	0.046328	0.696958
C179	C	-0.612059	0.379661	1.030292
C180	C	-0.278726	0.712994	1.363625
C181	C	-0.945392	0.046324	0.773188
C182	C	-0.612059	0.379657	1.106521
C183	C	-0.278726	0.712990	1.439854
C184	C	-0.842133	0.140904	0.773200
C185	C	-0.508799	0.474237	1.106533
C186	C	-0.175466	0.807570	1.439866
C187	C	-0.842130	0.140902	0.696972
C188	C	-0.508796	0.474235	1.030305
C189	C	-0.175463	0.807568	1.363639
C190	C	-0.893764	0.093614	0.658856
C191	C	-0.560430	0.426948	0.992189
C192	C	-0.227097	0.760281	1.325522
H193	H	-0.647246	0.212390	-0.000016
H194	H	-0.313913	0.545724	0.333317
H195	H	0.019420	0.879057	0.666651
F196	F	-0.491848	0.225975	-0.000019
F197	F	-0.158514	0.559308	0.333314
F198	F	0.174819	0.892642	0.666647
H199	H	-0.106728	0.204485	-0.000020
H200	H	0.226606	0.537818	0.333314
H201	H	0.559939	0.871151	0.666647
F202	F	-0.295631	-0.038757	-0.000027
F203	F	0.037702	0.294576	0.333306
F204	F	0.371036	0.627910	0.666640
H205	H	-1.014258	-0.710782	-0.000050
H206	H	-0.680925	-0.377449	0.333283
H207	H	-0.347592	-0.044115	0.666616
H208	H	-0.912144	-0.021186	0.430841
H209	H	-0.578811	0.312147	0.764174
H210	H	-0.245478	0.645480	1.097507
H211	H	-0.987434	0.007822	0.665923
H212	H	-0.654101	0.341155	0.999256
H213	H	-0.320767	0.674488	1.332590
F214	F	-0.132675	-0.041144	-0.000028
F215	F	0.200659	0.292189	0.333305
F216	F	0.533992	0.625522	0.666638
F217	F	-1.000345	-0.004005	0.813739
F218	F	-0.667012	0.329329	1.147073
F219	F	-0.333678	0.662662	1.480406
F220	F	-0.529986	-0.035335	-0.000040
F221	F	-0.196653	0.297998	0.333294
F222	F	0.136681	0.631331	0.666627
H223	H	-1.016360	-0.579353	-0.000045
H224	H	-0.683026	-0.246020	0.333288
H225	H	-0.349693	0.087313	0.666622
H226	H	-0.912153	-0.021182	0.569132
H227	H	-0.578820	0.312151	0.902465
H228	H	-0.245486	0.645485	1.235799
H229	H	-0.680753	-0.017269	-0.000016
H230	H	-0.347419	0.316064	0.333318
H231	H	-0.014086	0.649398	0.666651
F232	F	-1.001617	-0.494451	0.087546
F233	F	-0.668283	-0.161117	0.420879
F234	F	-0.334950	0.172216	0.754212
H235	H	-0.766073	-0.548888	-0.000020
H236	H	-0.432739	-0.215555	0.333314
H237	H	-0.099406	0.117778	0.666647
F238	F	-0.785865	-0.318338	-0.087625
F239	F	-0.452532	0.014995	0.245709
F240	F	-0.119199	0.348329	0.579042
H241	H	-0.249934	0.206579	-0.000034
H242	H	0.083399	0.539913	0.333300
H243	H	0.416732	0.873246	0.666633
F244	F	-0.787178	0.191227	0.656419
F245	F	-0.453845	0.524561	0.989752
F246	F	-0.120512	0.857894	1.323085
H247	H	-0.796816	-0.460430	-0.077007
H248	H	-0.463483	-0.127096	0.256327
H249	H	-0.130150	0.206237	0.589660
F250	F	-0.787190	0.191228	0.813770
F251	F	-0.453856	0.524562	1.147103
F252	F	-0.120523	0.857895	1.480437
F253	F	-1.004010	-0.344902	0.087549
F254	F	-0.670676	-0.011568	0.420882
F255	F	-0.337343	0.321765	0.754216
H256	H	-1.021409	-0.263888	-0.000047
H257	H	-0.688076	0.069445	0.333287
H258	H	-0.354743	0.402778	0.666620
H259	H	-1.023510	-0.132459	-0.000029
H260	H	-0.690176	0.200874	0.333304
H261	H	-0.356843	0.534208	0.666638
F262	F	-1.000296	-0.004008	0.186179
F263	F	-0.666963	0.329325	0.519512
F264	F	-0.333629	0.662658	0.852846
H265	H	-0.763962	-0.680324	-0.000013
H266	H	-0.430629	-0.346990	0.333321
H267	H	-0.097296	-0.013657	0.666654
H268	H	-0.875326	0.208408	0.430818
H269	H	-0.541993	0.541741	0.764151
H270	H	-0.208659	0.875075	1.097485
F271	F	-0.756115	-0.090839	-0.000009
F272	F	-0.422782	0.242494	0.333324
F273	F	-0.089449	0.575828	0.666658
H274	H	-0.771115	-0.233426	-0.000020
H275	H	-0.437782	0.099907	0.333313
H276	H	-0.104448	0.433241	0.666647
F277	F	-0.872821	0.224230	0.578630
F278	F	-0.539487	0.557564	0.911963
F279	F	-0.206154	0.890897	1.245296
H280	H	-0.987398	0.007814	0.333999
H281	H	-0.654065	0.341148	0.667332
H282	H	-0.320731	0.674481	1.000665
H283	H	-0.800057	0.179394	0.334029
H284	H	-0.466723	0.512727	0.667362
H285	H	-0.133390	0.846061	1.000695
F286	F	-0.787123	0.191213	0.186206
F287	F	-0.453790	0.524547	0.519540
F288	F	-0.120456	0.857880	0.852873
