data_functionalizedCrystal
_audit_creation_method	'MofGen! by Chris Wilmer'
_symmetry_space_group_name_H-M	'P1'
_symmetry_Int_Tables_number	1
_symmetry_cell_setting	triclinic
loop_
_symmetry_equiv_pos_as_xyz
  x,y,z
_cell_length_a	12.759401
_cell_length_b	12.759394
_cell_length_c	12.759393
_cell_angle_alpha	90.029526
_cell_angle_beta	90.020938
_cell_angle_gamma	90.015381
loop_
_atom_site_label
_atom_site_type_symbol
_atom_site_fract_x
_atom_site_fract_y
_atom_site_fract_z
Zn1	Zn	1.606273	-0.418173	0.594027
Zn2	Zn	1.606166	-0.593889	0.418350
Zn3	Zn	1.430571	-0.418229	0.418362
Zn4	Zn	1.430566	-0.593815	0.593988
O5	O	1.518394	-0.506026	0.506182
O6	O	1.753279	-0.441489	0.570735
O7	O	1.582831	-0.570641	0.271331
O8	O	1.453925	-0.271200	0.441686
O9	O	1.753201	-0.570587	0.441666
O10	O	1.583012	-0.271159	0.570747
O11	O	1.453822	-0.441585	0.271340
O12	O	1.283550	-0.441513	0.441648
O13	O	1.453916	-0.570462	0.741014
O14	O	1.283545	-0.570516	0.570679
O15	O	1.583007	-0.441418	0.741043
O16	O	1.582826	-0.740900	0.441627
O17	O	1.453813	-0.740846	0.570667
C18	C	1.245427	-0.506013	0.506161
C19	C	1.128650	-0.506033	0.506177
C20	C	1.073813	-0.573307	0.573258
C21	C	0.964089	-0.573311	0.573279
C22	C	0.964048	-0.438765	0.439129
C23	C	1.073770	-0.438756	0.439114
C24	C	0.814194	-0.611010	0.697140
C25	C	0.759354	-0.678300	0.764211
C26	C	0.794953	-0.780831	0.780161
C27	C	0.885391	-0.816092	0.729024
C28	C	0.940225	-0.748808	0.661944
C29	C	0.904628	-0.646262	0.646015
C30	C	1.223667	-0.401068	0.315252
C31	C	1.278504	-0.333788	0.248166
C32	C	1.242907	-0.231256	0.232206
C33	C	1.152466	-0.195998	0.283325
C34	C	1.097629	-0.263278	0.350410
C35	C	1.133234	-0.365810	0.366372
C36	C	1.518336	-0.778994	0.506165
C37	C	1.518407	-0.895771	0.506192
C38	C	1.652724	-0.895570	0.640683
C39	C	1.719916	-0.950330	0.707937
C40	C	1.719979	-1.060051	0.707960
C41	C	1.652840	-1.115015	0.640724
C42	C	1.585648	-1.060255	0.573470
C43	C	1.585595	-0.950531	0.573453
C44	C	1.451326	-1.060456	0.438986
C45	C	1.451268	-0.950734	0.438956
C46	C	1.384187	-1.115420	0.371750
C47	C	1.316999	-1.060659	0.304490
C48	C	1.316940	-0.950931	0.304469
C49	C	1.384076	-0.895974	0.371703
C50	C	1.792427	-0.506040	0.506203
C51	C	1.909204	-0.506046	0.506213
C52	C	1.518473	-0.505925	0.780215
C53	C	1.518506	-0.505882	0.896992
C54	C	1.518481	-0.231993	0.506222
C55	C	1.518518	-0.115216	0.506239
C56	C	1.518376	-0.506051	0.233214
C57	C	1.518546	-0.505798	0.116438
C58	C	1.585729	-0.438679	0.951871
C59	C	1.585747	-0.438633	1.061595
C60	C	1.451316	-0.573005	1.061552
C61	C	1.451294	-0.573044	0.951830
C62	C	1.623357	-0.314677	1.211571
C63	C	1.690596	-0.247482	1.266454
C64	C	1.793108	-0.231372	1.230862
C65	C	1.828403	-0.282471	1.140389
C66	C	1.761169	-0.349673	1.085513
C67	C	1.658642	-0.365764	1.121103
C68	C	1.413694	-0.697002	0.801852
C69	C	1.346465	-0.764210	0.746973
C70	C	1.243951	-0.780332	0.782562
C71	C	1.208660	-0.729251	0.873038
C72	C	1.275889	-0.662042	0.927917
C73	C	1.378403	-0.645919	0.892320
H74	H	0.914362	-0.899588	0.742006
C75	C	1.038296	-0.787080	0.606226
C76	C	1.023481	-0.780598	0.497690
C77	C	1.113800	-0.815856	0.446332
H78	H	1.096242	-0.744684	0.625977
H79	H	1.051655	-0.857806	0.625251
H80	H	1.010134	-0.709884	0.478673
H81	H	0.965552	-0.822995	0.477908
H82	H	1.127160	-0.886582	0.465356
H83	H	1.171739	-0.773456	0.466091
H84	H	1.103757	-0.811471	0.372685
H85	H	1.118493	-0.628086	0.627867
C86	C	1.262526	-0.512319	0.332614
C87	C	1.363859	-0.509406	0.374658
C88	C	1.399692	-0.611868	0.390649
H89	H	1.217036	-0.547434	0.379915
H90	H	1.263601	-0.548681	0.267628
H91	H	1.362776	-0.473059	0.439635
H92	H	1.409373	-0.474310	0.327372
H93	H	1.400768	-0.648230	0.325663
H94	H	1.354196	-0.646975	0.437949
H95	H	1.468454	-0.609906	0.419169
C96	C	1.793031	-1.119322	0.781028
C97	C	1.851827	-1.047711	0.839895
C98	C	1.919137	-1.102273	0.907211
H99	H	1.752949	-1.162125	0.826866
H100	H	1.838908	-1.162098	0.740913
H101	H	1.805956	-1.004953	0.880007
H102	H	1.891930	-1.004906	0.794084
H103	H	1.965013	-1.145049	0.867096
H104	H	1.879047	-1.145073	0.953042
H105	H	1.959044	-1.053693	0.947153
H106	H	1.023992	-0.234559	0.392041
C107	C	0.661253	-0.640097	0.819936
C108	C	0.676058	-0.646628	0.928471
C109	C	0.585707	-0.611462	0.979836
H110	H	0.647825	-0.569381	0.800973
H111	H	0.603347	-0.682544	0.800129
H112	H	0.733947	-0.604180	0.948269
H113	H	0.689472	-0.717334	0.947464
H114	H	0.527801	-0.653910	0.960030
H115	H	0.572287	-0.540748	0.960865
H116	H	0.595737	-0.615898	1.053482
H117	H	1.262335	-1.105420	0.249757
H118	H	1.652888	-1.204356	0.640757
H119	H	1.774578	-0.905569	0.762682
H120	H	1.189218	-0.835068	0.737875
H121	H	1.262221	-0.906351	0.249707
H122	H	0.919352	-0.383991	0.384527
H123	H	1.384039	-0.806633	0.371688
C124	C	1.658647	-0.365865	0.892142
C125	C	1.644261	-0.380297	0.784305
C126	C	1.711421	-0.313243	0.729254
H127	H	1.643358	-0.295226	0.910009
H128	H	1.729260	-0.381243	0.910071
H129	H	1.573663	-0.364911	0.766383
H130	H	1.659557	-0.450922	0.766407
H131	H	1.782035	-0.328621	0.747183
H132	H	1.696127	-0.242608	0.747130
H133	H	1.701677	-0.323033	0.656081
C134	C	1.799664	-0.405206	0.987396
C135	C	1.885776	-0.468345	1.012625
C136	C	1.921274	-0.519500	0.922260
H137	H	1.745051	-0.447608	0.959731
H138	H	1.819963	-0.354668	0.936649
H139	H	1.865473	-0.518876	1.063354
H140	H	1.940409	-0.425968	1.040278
H141	H	1.941573	-0.468962	0.871513
H142	H	1.866655	-0.561896	0.894601
H143	H	1.979710	-0.562338	0.939363
H144	H	1.384239	-1.204761	0.371777
H145	H	1.911883	-0.269355	1.111423
H146	H	1.375212	-0.805813	0.673309
C147	C	1.113613	-0.084728	0.266097
C148	C	1.022657	-0.068261	0.325202
C149	C	0.986829	0.034224	0.309342
H150	H	1.166142	-0.036451	0.287441
H151	H	1.098459	-0.074660	0.193895
H152	H	1.037814	-0.078317	0.397389
H153	H	0.970106	-0.116512	0.303870
H154	H	0.971676	0.044291	0.237139
H155	H	1.039365	0.082491	0.330685
H156	H	0.925107	0.045407	0.349434
C157	C	1.652401	-0.192138	1.364801
C158	C	1.715126	-0.221506	1.449917
C159	C	1.679971	-0.170559	1.540535
H160	H	1.656677	-0.118448	1.355142
H161	H	1.581728	-0.211364	1.378202
H162	H	1.785781	-0.202273	1.436518
H163	H	1.710857	-0.295187	1.459609
H164	H	1.609298	-0.189785	1.553936
H165	H	1.684248	-0.096872	1.530865
H166	H	1.722517	-0.190485	1.598298
H167	H	0.750294	-0.835619	0.834773
H168	H	1.497168	-0.683873	0.772860
C169	C	1.378466	-0.645886	1.121282
C170	C	1.392893	-0.631491	1.229119
C171	C	1.325812	-0.698623	1.284172
H172	H	1.307834	-0.630578	1.103419
H173	H	1.393825	-0.716507	1.103351
H174	H	1.377527	-0.560886	1.247043
H175	H	1.463511	-0.646806	1.247013
H176	H	1.341170	-0.769244	1.266240
H177	H	1.255184	-0.683309	1.266300
H178	H	1.335598	-0.688872	1.357344
C179	C	1.097304	-0.746845	0.911491
C180	C	1.045972	-0.816613	0.844051
C181	C	0.943386	-0.832841	0.879431
H182	H	1.098977	-0.775431	0.980195
H183	H	1.060853	-0.681936	0.912515
H184	H	1.082414	-0.881510	0.843038
H185	H	1.044270	-0.788046	0.775343
H186	H	0.906935	-0.767932	0.880455
H187	H	0.945070	-0.861424	0.948136
H188	H	0.908541	-0.880172	0.833674
H189	H	0.785207	-0.527517	0.684170
H190	H	1.287560	-0.176480	0.177570
H191	H	1.847855	-0.176660	1.275555
H192	H	1.539881	-0.327780	1.240553
H193	H	1.352146	-0.362505	0.206542
H194	H	1.652690	-0.806228	0.640662
H195	H	1.247147	-0.620450	1.001588
