data_functionalizedCrystal
_audit_creation_method	'MofGen! by Chris Wilmer'
_symmetry_space_group_name_H-M	'P1'
_symmetry_Int_Tables_number	1
_symmetry_cell_setting	triclinic
loop_
_symmetry_equiv_pos_as_xyz
  x,y,z
_cell_length_a	10.654550
_cell_length_b	9.730223
_cell_length_c	14.971486
_cell_angle_alpha	89.999392
_cell_angle_beta	84.049516
_cell_angle_gamma	90.003029
loop_
_atom_site_label
_atom_site_type_symbol
_atom_site_fract_x
_atom_site_fract_y
_atom_site_fract_z
O1	O	1.666485	0.114404	0.125624
O2	O	1.300879	0.114382	0.137594
O3	O	1.493481	0.114383	0.001462
O4	O	1.473883	0.114402	0.261756
O5	O	1.493481	-0.114196	0.001471
O6	O	1.300878	-0.114198	0.137603
O7	O	1.666485	-0.114176	0.125633
Zn8	Zn	1.483681	-0.150479	0.131619
Zn9	Zn	1.483682	0.150685	0.131608
O10	O	1.473882	-0.114178	0.261765
C11	C	1.254090	0.000089	0.136719
C12	C	1.114675	0.000080	0.134090
N13	N	1.483690	-0.356016	0.131627
C14	C	1.492605	0.000094	-0.031863
C15	C	1.489978	0.000095	-0.131174
C16	C	1.034329	0.000106	0.214242
C17	C	0.903335	0.000130	0.211766
C18	C	0.933045	0.000107	0.048979
C19	C	1.064036	0.000074	0.051456
C20	C	1.017175	0.000125	0.308226
C21	C	0.886181	0.000148	0.305750
C22	C	1.713274	0.000120	0.126508
C23	C	1.852689	0.000137	0.129137
C24	C	1.398385	-0.571862	0.191860
C25	C	1.398385	-0.427979	0.191875
C26	C	1.568993	-0.427943	0.071353
C27	C	1.568986	-0.571823	0.071334
C28	C	1.299889	-0.571881	0.261446
C29	C	1.299889	-0.427998	0.261461
N30	N	1.483683	0.356221	0.131593
C31	C	1.603127	0.000101	-0.187784
C32	C	1.600651	0.000114	-0.281097
C33	C	1.485026	0.000112	-0.317798
C34	C	1.371868	0.000111	-0.261181
C35	C	1.374345	0.000107	-0.167870
C36	C	1.366714	0.000115	-0.455672
C37	C	1.364237	0.000117	-0.548989
C38	C	1.593020	0.000123	-0.568898
C39	C	1.595497	0.000119	-0.475587
C40	C	1.482339	0.000115	-0.418977
C41	C	1.474759	0.000115	0.295090
C42	C	1.477386	0.000123	0.394401
H43	H	1.129450	0.000033	-0.013812
Br44	Br	1.760056	0.000084	-0.137984
H45	H	1.692789	0.000116	-0.327185
Br46	Br	1.752419	0.000125	-0.425778
Br47	Br	1.148275	-0.353592	0.225206
Br48	Br	1.746593	0.000131	-0.645725
Br49	Br	1.213141	0.000115	-0.378843
H50	H	1.203537	-0.610919	0.246123
Br51	Br	1.214945	0.000131	-0.310989
Br52	Br	1.349602	-0.646315	0.369702
H53	H	1.270084	0.000093	-0.578868
H54	H	1.320596	-0.388971	0.330218
Br55	Br	1.065417	-0.159308	0.369501
H56	H	1.638431	-0.630377	0.022253
Br57	Br	0.864313	0.000094	-0.063162
H58	H	1.638443	-0.369341	0.022292
H59	H	1.282207	0.000102	-0.121779
H60	H	1.052510	0.098814	0.338148
Br61	Br	0.815979	0.159596	0.364764
Br62	Br	0.809537	-0.164321	0.353095
