data_functionalizedCrystal
_audit_creation_method	'MofGen! by Chris Wilmer'
_symmetry_space_group_name_H-M	'P1'
_symmetry_Int_Tables_number	1
_symmetry_cell_setting	triclinic
loop_
_symmetry_equiv_pos_as_xyz
  x,y,z
_cell_length_a	16.959455
_cell_length_b	16.959454
_cell_length_c	16.959447
_cell_angle_alpha	90.026736
_cell_angle_beta	90.016723
_cell_angle_gamma	90.019023
loop_
_atom_site_label
_atom_site_type_symbol
_atom_site_fract_x
_atom_site_fract_y
_atom_site_fract_z
Zn1	Zn	1.208384	-0.314688	0.446979
Zn2	Zn	1.708384	0.185312	0.946979
Zn3	Zn	1.208306	-0.446881	0.314809
Zn4	Zn	1.708306	0.053119	0.814809
Zn5	Zn	1.076212	-0.314718	0.314811
Zn6	Zn	1.576212	0.185282	0.814811
Zn7	Zn	1.076177	-0.446826	0.446942
Zn8	Zn	1.576177	0.053174	0.946942
O9	O	1.142270	-0.380778	0.380885
O10	O	1.642270	0.119222	0.880885
O11	O	1.318984	-0.332234	0.429461
O12	O	1.818984	0.167766	0.929461
O13	O	1.190766	-0.429384	0.204198
O14	O	1.690766	0.070616	0.704198
O15	O	1.093792	-0.204103	0.332360
O16	O	1.593792	0.295897	0.832360
O17	O	1.318927	-0.429355	0.332356
O18	O	1.818927	0.070645	0.832356
O19	O	1.190898	-0.204081	0.429463
O20	O	1.690898	0.295919	0.929463
O21	O	1.093717	-0.332284	0.204200
O22	O	1.593717	0.167716	0.704200
O23	O	0.965597	-0.332232	0.332324
O24	O	1.465597	0.167768	0.832324
O25	O	1.093732	-0.429263	0.557558
O26	O	1.593732	0.070737	1.057558
O27	O	0.965571	-0.429291	0.429400
O28	O	1.465571	0.070709	0.929400
O29	O	1.190864	-0.332181	0.557585
O30	O	1.690864	0.167819	1.057585
O31	O	1.190732	-0.557484	0.332320
O32	O	1.690732	-0.057484	0.832320
O33	O	1.093657	-0.557444	0.429398
O34	O	1.593657	-0.057444	0.929398
C35	C	0.936904	-0.380759	0.380858
C36	C	1.436904	0.119241	0.880858
C37	C	0.849047	-0.380770	0.380866
C38	C	1.349047	0.119230	0.880866
C39	C	0.807763	-0.330164	0.330404
C40	C	1.307763	0.169836	0.830404
C41	C	0.807777	-0.431383	0.431339
C42	C	1.307777	0.068617	0.931339
C43	C	0.725231	-0.431392	0.431351
C44	C	1.225231	0.068608	0.931351
C45	C	0.683948	-0.380785	0.380889
C46	C	1.183948	0.119215	0.880889
C47	C	0.725209	-0.330169	0.330415
C48	C	1.225209	0.169831	0.830415
C49	C	0.683963	-0.482001	0.481829
C50	C	1.183963	0.017999	0.981829
C51	C	0.601412	-0.482011	0.481844
C52	C	1.101412	0.017989	0.981844
C53	C	0.560127	-0.431408	0.431377
C54	C	1.060127	0.068592	0.931377
C55	C	0.601394	-0.380791	0.380901
C56	C	1.101394	0.119209	0.880901
C57	C	0.560110	-0.330184	0.330439
C58	C	1.060110	0.169816	0.830439
C59	C	0.601376	-0.279571	0.279958
C60	C	1.101376	0.220429	0.779958
C61	C	0.683924	-0.279566	0.279949
C62	C	1.183924	0.220434	0.779949
C63	C	0.477579	-0.431413	0.431386
C64	C	0.977579	0.068587	0.931386
C65	C	0.477557	-0.330190	0.330450
C66	C	0.977557	0.169810	0.830450
C67	C	1.142204	-0.586144	0.380872
C68	C	1.642204	-0.086144	0.880872
C69	C	1.142248	-0.674001	0.380892
C70	C	1.642248	-0.174001	0.880892
C71	C	1.091796	-1.045486	0.431428
C72	C	1.591796	-0.545486	0.931428
C73	C	1.192964	-1.045467	0.330423
C74	C	1.692964	-0.545467	0.830423
C75	C	1.192936	-0.962921	0.330415
C76	C	1.692936	-0.462921	0.830415
C77	C	1.142337	-0.921654	0.380914
C78	C	1.642337	-0.421654	0.880914
C79	C	1.091765	-0.962932	0.431421
C80	C	1.591765	-0.462932	0.931421
C81	C	1.243501	-0.921637	0.279905
C82	C	1.743501	-0.421637	0.779905
C83	C	1.243475	-0.839086	0.279895
C84	C	1.743475	-0.339086	0.779895
C85	C	1.192879	-0.797817	0.330398
C86	C	1.692879	-0.297817	0.830398
C87	C	1.142306	-0.839100	0.380907
C88	C	1.642306	-0.339100	0.880907
C89	C	1.091707	-0.797833	0.431406
C90	C	1.591707	-0.297833	0.931406
C91	C	1.041137	-0.839115	0.481919
C92	C	1.541137	-0.339115	0.981919
C93	C	1.041170	-0.921663	0.481924
C94	C	1.541170	-0.421663	0.981924
C95	C	1.192847	-0.715269	0.330393
C96	C	1.692847	-0.215269	0.830393
C97	C	1.091676	-0.715279	0.431399
C98	C	1.591676	-0.215279	0.931399
C99	C	1.348438	-0.380798	0.380912
C100	C	1.848438	0.119202	0.880912
C101	C	1.436295	-0.380806	0.380924
C102	C	1.936295	0.119194	0.880924
C103	C	1.142303	-0.380713	0.587053
C104	C	1.642303	0.119287	1.087053
C105	C	1.142317	-0.380685	0.674910
C106	C	1.642317	0.119315	1.174910
C107	C	1.142358	-0.174610	0.380916
C108	C	1.642358	0.325390	0.880916
C109	C	1.142395	-0.086753	0.380929
C110	C	1.642395	0.413247	0.880929
C111	C	1.142283	-0.380786	0.175519
C112	C	1.642283	0.119214	0.675519
C113	C	1.142422	-0.380591	0.087663
C114	C	1.642422	0.119409	0.587663
C115	C	1.091839	-0.431147	1.046374
C116	C	1.591839	0.068853	1.546374
C117	C	1.192983	-0.330056	1.046398
C118	C	1.692983	0.169944	1.546398
C119	C	1.192962	-0.330072	0.963852
C120	C	1.692962	0.169928	1.463852
C121	C	1.142380	-0.380628	0.922563
C122	C	1.642380	0.119372	1.422563
C123	C	1.091818	-0.431167	0.963821
C124	C	1.591818	0.068833	1.463821
C125	C	1.243529	-0.279540	0.922588
C126	C	1.743529	0.220460	1.422588
C127	C	1.243510	-0.279555	0.840037
C128	C	1.743510	0.220445	1.340037
C129	C	1.192923	-0.330108	0.798747
C130	C	1.692923	0.169892	1.298747
C131	C	1.142359	-0.380648	0.840010
C132	C	1.642359	0.119352	1.340010
C133	C	1.091776	-0.431204	0.798721
C134	C	1.591776	0.068796	1.298721
C135	C	1.041207	-0.481741	0.839982
C136	C	1.541207	0.018259	1.339982
C137	C	1.041231	-0.481719	0.922530
C138	C	1.541231	0.018281	1.422530
C139	C	1.192899	-0.330129	0.716199
C140	C	1.692899	0.169871	1.216199
C141	C	1.091755	-0.431224	0.716167
C142	C	1.591755	0.068776	1.216167
H143	H	1.050475	-0.681684	0.472524
H144	H	1.550475	-0.181684	0.972524
H145	H	1.234074	-0.288985	0.682608
H146	H	1.734074	0.211015	1.182608
C147	C	0.384694	-0.319101	0.224146
C148	C	0.884694	0.180899	0.724146
C149	C	0.432186	-0.274567	0.274968
C150	C	0.932186	0.225433	0.774968
H151	H	0.356691	-0.284762	0.189888
H152	H	0.856691	0.215238	0.689888
H153	H	0.348301	-0.349228	0.254209
H154	H	0.848301	0.150772	0.754209
H155	H	0.416885	-0.353507	0.193863
H156	H	0.916885	0.146493	0.693863
H157	H	0.399994	-0.240165	0.305255
H158	H	0.899994	0.259835	0.805255
H159	H	0.468583	-0.244427	0.244902
H160	H	0.968583	0.255573	0.744902
H161	H	1.234154	-1.079072	0.289304
H162	H	1.734154	-0.579072	0.789304
H163	H	0.717530	-0.238359	0.238851
H164	H	1.217530	0.261641	0.738851
C165	C	1.377397	-0.241054	0.948020
C166	C	1.877397	0.258946	1.448020
C167	C	1.299131	-0.223973	0.967969
C168	C	1.799131	0.276027	1.467969
H169	H	1.411723	-0.206750	0.976042
H170	H	1.911723	0.293250	1.476042
H171	H	1.384617	-0.233834	0.892958
H172	H	1.884617	0.266166	1.392958
H173	H	1.388932	-0.294163	0.961544
H174	H	1.888932	0.205837	1.461544
H175	H	1.287594	-0.170867	0.954439
H176	H	1.787594	0.329133	1.454439
H177	H	1.291907	-0.231188	1.023042
H178	H	1.791907	0.268812	1.523042
C179	C	1.282049	-0.145714	0.814678
C180	C	1.782049	0.354286	1.314678
C181	C	1.299085	-0.223993	0.794694
C182	C	1.799085	0.276007	1.294694
H183	H	1.316355	-0.111410	0.786683
H184	H	1.816355	0.388590	1.286683
H185	H	1.289301	-0.138484	0.869745
H186	H	1.789301	0.361516	1.369745
H187	H	1.228939	-0.134159	0.801147
H188	H	1.728939	0.365841	1.301147
H189	H	1.352194	-0.235550	0.808231
H190	H	1.852194	0.264450	1.308231
H191	H	1.291840	-0.231227	0.739615
H192	H	1.791840	0.268773	1.239615
C193	C	0.934292	-0.285206	0.285560
C194	C	1.434292	0.214794	0.785560
C195	C	0.853117	-0.274528	0.274919
C196	C	1.353117	0.225472	0.774919
H197	H	0.962291	-0.250854	0.251309
H198	H	1.462291	0.249146	0.751309
H199	H	0.947797	-0.338293	0.273900
H200	H	1.447797	0.161707	0.773900
H201	H	0.947842	-0.273698	0.338687
H202	H	1.447842	0.226302	0.838687
H203	H	0.839567	-0.286041	0.221793
H204	H	1.339567	0.213959	0.721793
H205	H	0.839607	-0.221428	0.286574
H206	H	1.339607	0.278572	0.786574
C207	C	0.900655	-0.442477	0.537626
C208	C	1.400655	0.057523	1.037626
C209	C	0.853158	-0.487006	0.486804
C210	C	1.353158	0.012994	0.986804
H211	H	0.928677	-0.476820	0.571864
H212	H	1.428677	0.023180	1.071864
H213	H	0.868471	-0.408088	0.567923
H214	H	1.368471	0.091912	1.067923
H215	H	0.937039	-0.412332	0.507556
H216	H	1.437039	0.087668	1.007556
H217	H	0.816770	-0.517146	0.516874
H218	H	1.316770	-0.017146	1.016874
H219	H	0.885345	-0.521408	0.456504
H220	H	1.385345	-0.021408	0.956504
H221	H	0.717583	-0.523200	0.522915
H222	H	1.217583	-0.023200	1.022915
H223	H	1.050665	-0.472291	1.079972
H224	H	1.550665	0.027709	1.579972
C225	C	0.508495	-0.268479	0.173670
C226	C	1.008495	0.231521	0.673670
C227	C	0.555994	-0.223946	0.224487
C228	C	1.055994	0.276054	0.724487
H229	H	0.480481	-0.234138	0.139422
H230	H	0.980481	0.265862	0.639422
H231	H	0.472111	-0.298612	0.203737
H232	H	0.972111	0.201388	0.703737
H233	H	0.540682	-0.302878	0.143376
H234	H	1.040682	0.197122	0.643376
H235	H	0.523805	-0.189550	0.254784
H236	H	1.023805	0.310450	0.754784
H237	H	0.592381	-0.193799	0.194415
H238	H	1.092381	0.306201	0.694415
H239	H	1.050626	-1.079101	0.472557
H240	H	1.550626	-0.579101	0.972557
H241	H	0.999936	-0.805505	0.523033
H242	H	1.499936	-0.305505	1.023033
C243	C	0.907308	-0.947143	0.520307
C244	C	1.407308	-0.447143	1.020307
C245	C	0.985582	-0.967037	0.537443
C246	C	1.485582	-0.467037	1.037443
H247	H	0.872992	-0.975154	0.554585
H248	H	1.372992	-0.475154	1.054585
H249	H	0.895786	-0.960712	0.467195
H250	H	1.395786	-0.460712	0.967195
H251	H	0.900060	-0.892073	0.527534
H252	H	1.400060	-0.392073	1.027534
H253	H	0.992831	-1.022107	0.530210
H254	H	1.492831	-0.522107	1.030210
H255	H	0.997108	-0.953474	0.590567
H256	H	1.497108	-0.453474	1.090567
H257	H	0.567821	-0.523225	0.522947
H258	H	1.067821	-0.023225	1.022947
C259	C	1.288349	-1.048171	0.234961
C260	C	1.788349	-0.548171	0.734961
C261	C	1.299034	-0.966998	0.224317
C262	C	1.799034	-0.466998	0.724317
H263	H	1.322615	-1.076176	0.200621
H264	H	1.822615	-0.576176	0.700621
H265	H	1.235231	-1.061696	0.223422
H266	H	1.735231	-0.561696	0.723422
H267	H	1.299968	-1.061692	0.288057
H268	H	1.799968	-0.561692	0.788057
H269	H	1.287410	-0.953477	0.171222
H270	H	1.787410	-0.453477	0.671222
H271	H	1.352164	-0.953468	0.235850
H272	H	1.852164	-0.453468	0.735850
C273	C	0.485888	-0.531446	0.531170
C274	C	0.985888	-0.031446	1.031170
C275	C	0.432220	-0.487035	0.486875
C276	C	0.932220	0.012965	0.986875
H277	H	0.457884	-0.565788	0.565426
H278	H	0.957884	-0.065788	1.065426
H279	H	0.518107	-0.497035	0.561448
H280	H	1.018107	0.002965	1.061448
H281	H	0.518063	-0.561645	0.496675
H282	H	1.018063	-0.061645	0.996675
H283	H	0.400049	-0.456832	0.521371
H284	H	0.900049	0.043168	1.021371
H285	H	0.399988	-0.521450	0.456595
H286	H	0.899988	-0.021450	0.956595
H287	H	1.284651	-0.805480	0.238765
H288	H	1.784651	-0.305480	0.738765
C289	C	1.292839	-0.723546	0.230546
C290	C	1.792839	-0.223546	0.730546
C291	C	1.248424	-0.669892	0.274873
C292	C	1.748424	-0.169892	0.774873
H293	H	1.327154	-0.695531	0.196271
H294	H	1.827154	-0.195531	0.696271
H295	H	1.258428	-0.755782	0.200286
H296	H	1.758428	-0.255782	0.700286
H297	H	1.323065	-0.755705	0.265021
H298	H	1.823065	-0.255705	0.765021
H299	H	1.218193	-0.637736	0.240398
H300	H	1.718193	-0.137736	0.740398
H301	H	1.282839	-0.637643	0.305134
H302	H	1.782839	-0.137643	0.805134
H303	H	1.050557	-0.472386	0.682556
H304	H	1.550557	0.027614	1.182556
C305	C	0.996275	-0.526653	0.713424
C306	C	1.496275	-0.026653	1.213424
C307	C	0.985607	-0.537310	0.794592
C308	C	1.485607	-0.037310	1.294592
H309	H	0.961947	-0.560955	0.685402
H310	H	1.461947	-0.060955	1.185402
H311	H	1.049370	-0.538233	0.699907
H312	H	1.549370	-0.038233	1.199907
H313	H	0.984729	-0.473543	0.699916
H314	H	1.484729	0.026457	1.199916
H315	H	0.997159	-0.590419	0.808101
H316	H	1.497159	-0.090419	1.308101
H317	H	0.932499	-0.525736	0.808114
H318	H	1.432499	-0.025736	1.308114
H319	H	1.000063	-0.522866	0.956132
H320	H	1.500063	-0.022866	1.456132
C321	C	1.237927	-0.285147	1.172949
C322	C	1.737927	0.214853	1.672949
C323	C	1.248584	-0.274490	1.091780
C324	C	1.748584	0.225510	1.591780
H325	H	1.272252	-0.250837	1.200967
H326	H	1.772252	0.249163	1.700967
H327	H	1.249477	-0.338248	1.186457
H328	H	1.749477	0.161752	1.686457
H329	H	1.184825	-0.273569	1.186472
H330	H	1.684825	0.226431	1.686472
H331	H	1.301685	-0.286073	1.078256
H332	H	1.801685	0.213927	1.578256
H333	H	1.237040	-0.221376	1.078267
H334	H	1.737040	0.278624	1.578267
