data_functionalizedCrystal
_audit_creation_method	'MofGen! by Chris Wilmer'
_symmetry_space_group_name_H-M	'P1'
_symmetry_Int_Tables_number	1
_symmetry_cell_setting	triclinic
loop_
_symmetry_equiv_pos_as_xyz
  x,y,z
_cell_length_a	16.959454
_cell_length_b	12.759401
_cell_length_c	12.759393
_cell_angle_alpha	90.020566
_cell_angle_beta	89.970360
_cell_angle_gamma	89.981716
loop_
_atom_site_label
_atom_site_type_symbol
_atom_site_fract_x
_atom_site_fract_y
_atom_site_fract_z
Zn1	Zn	-0.314681	-1.606227	-0.594016
Zn2	Zn	0.185319	-1.106227	-0.094016
Zn3	Zn	-0.446880	-1.606102	-0.418339
Zn4	Zn	0.053120	-1.106102	0.081661
Zn5	Zn	-0.314715	-1.430526	-0.418352
Zn6	Zn	0.185285	-0.930526	0.081648
Zn7	Zn	-0.446817	-1.430501	-0.593977
Zn8	Zn	0.053183	-0.930501	-0.093977
O9	O	-0.380774	-1.518339	-0.506171
O10	O	0.119226	-1.018339	-0.006171
O11	O	-0.332229	-1.753231	-0.570723
O12	O	0.167771	-1.253231	-0.070723
O13	O	-0.429389	-1.582769	-0.271319
O14	O	0.070611	-1.082769	0.228681
O15	O	-0.204100	-1.453896	-0.441676
O16	O	0.295900	-0.953896	0.058324
O17	O	-0.429356	-1.753139	-0.441653
O18	O	0.070644	-1.253139	0.058347
O19	O	-0.204075	-1.582983	-0.570736
O20	O	0.295925	-1.082983	-0.070736
O21	O	-0.332288	-1.453774	-0.271329
O22	O	0.167712	-0.953774	0.228671
O23	O	-0.332227	-1.283502	-0.441639
O24	O	0.167773	-0.783502	0.058361
O25	O	-0.429248	-1.453854	-0.741003
O26	O	0.070752	-0.953854	-0.241003
O27	O	-0.429282	-1.283483	-0.570669
O28	O	0.070718	-0.783483	-0.070669
O29	O	-0.332169	-1.582959	-0.741032
O30	O	0.167831	-1.082959	-0.241032
O31	O	-0.557483	-1.582745	-0.441615
O32	O	-0.057483	-1.082745	0.058385
O33	O	-0.557437	-1.453732	-0.570656
O34	O	-0.057437	-0.953732	-0.070656
C35	C	-0.380752	-1.245372	-0.506152
C36	C	0.119248	-0.745372	-0.006152
C37	C	-0.380762	-1.128595	-0.506169
C38	C	0.119238	-0.628595	-0.006169
C39	C	-0.330278	-1.073782	-0.573478
C40	C	0.169722	-0.573782	-0.073478
C41	C	-0.330283	-0.964058	-0.573483
C42	C	0.169717	-0.464058	-0.073483
C43	C	-0.431262	-0.963970	-0.438867
C44	C	0.068738	-0.463970	0.061133
C45	C	-0.431253	-1.073692	-0.438857
C46	C	0.068747	-0.573692	0.061143
C47	C	-0.586140	-1.518251	-0.506153
C48	C	-0.086140	-1.018251	-0.006153
C49	C	-0.673996	-1.518309	-0.506181
C50	C	-0.173996	-1.018309	-0.006181
C51	C	-1.045478	-1.451259	-0.573355
C52	C	-0.545478	-0.951259	-0.073355
C53	C	-1.045466	-1.585711	-0.439094
C54	C	-0.545466	-1.085711	0.060906
C55	C	-0.962920	-1.585674	-0.439084
C56	C	-0.462920	-1.085674	0.060916
C57	C	-0.921649	-1.518428	-0.506210
C58	C	-0.421649	-1.018428	-0.006210
C59	C	-0.962924	-1.451218	-0.573345
C60	C	-0.462924	-0.951218	-0.073345
C61	C	-0.921639	-1.652875	-0.371942
C62	C	-0.421639	-1.152875	0.128058
C63	C	-0.839088	-1.652841	-0.371929
C64	C	-0.339088	-1.152841	0.128071
C65	C	-0.797816	-1.585599	-0.439061
C66	C	-0.297816	-1.085599	0.060939
C67	C	-0.839096	-1.518387	-0.506200
C68	C	-0.339096	-1.018387	-0.006200
C69	C	-0.797825	-1.451141	-0.573326
C70	C	-0.297825	-0.951141	-0.073326
C71	C	-0.839104	-1.383934	-0.640471
C72	C	-0.339104	-0.883934	-0.140471
C73	C	-0.921652	-1.383977	-0.640477
C74	C	-0.421652	-0.883977	-0.140477
C75	C	-0.715267	-1.585556	-0.439055
C76	C	-0.215267	-1.085556	0.060945
C77	C	-0.715271	-1.451100	-0.573316
C78	C	-0.215271	-0.951100	-0.073316
C79	C	-0.174605	-1.518456	-0.506212
C80	C	0.325395	-1.018456	-0.006212
C81	C	-0.086749	-1.518506	-0.506229
C82	C	0.413251	-1.018506	-0.006229
C83	C	-0.380698	-1.518418	-0.780204
C84	C	0.119302	-1.018418	-0.280204
C85	C	-0.380665	-1.518451	-0.896981
C86	C	0.119335	-1.018451	-0.396981
C87	C	-0.380788	-0.792372	-0.506187
C88	C	0.119212	-0.292372	-0.006187
C89	C	-0.380776	-0.909149	-0.506184
C90	C	0.119224	-0.409149	-0.006184
C91	C	-0.330108	-1.585681	-0.951860
C92	C	0.169892	-1.085681	-0.451860
C93	C	-0.330074	-1.585699	-1.061584
C94	C	0.169926	-1.085699	-0.561584
C95	C	-0.431162	-1.451254	-1.061541
C96	C	0.068838	-0.951254	-0.561541
C97	C	-0.431191	-1.451231	-0.951819
C98	C	0.068809	-0.951231	-0.451819
C99	C	-0.380792	-1.518321	-0.233204
C100	C	0.119208	-1.018321	0.266796
C101	C	-0.380602	-1.518491	-0.116427
C102	C	0.119398	-1.018491	0.383573
H103	H	-0.289173	-0.919433	-0.628291
H104	H	0.210827	-0.419433	-0.128291
F105	F	-0.484997	-0.905529	-0.367236
F106	F	0.015003	-0.405529	0.132764
F107	F	-0.484935	-1.379722	-1.119913
F108	F	0.015065	-0.879722	-0.619913
H109	H	-0.472363	-1.118322	-0.384040
H110	H	0.027637	-0.618322	0.115960
F111	F	-0.485001	-1.379667	-0.893410
F112	F	0.014999	-0.879667	-0.393410
H113	H	-0.289163	-1.118480	-0.628284
H114	H	0.210837	-0.618480	-0.128284
F115	F	-0.276332	-1.657219	-0.893501
F116	F	0.223668	-1.157219	-0.393501
H117	H	-0.681662	-1.640270	-0.384381
H118	H	-0.181662	-1.140270	0.115619
H119	H	-0.288903	-1.640443	-1.106261
H120	H	0.211097	-1.140443	-0.606261
F121	F	-0.795164	-1.724374	-0.300475
F122	F	-0.295164	-1.224374	0.199525
F123	F	-0.671354	-1.379530	-0.644768
F124	F	-0.171354	-0.879530	-0.144768
H125	H	-1.079091	-1.396544	-0.628026
H126	H	-0.579091	-0.896544	-0.128026
F127	F	-1.089391	-1.657275	-0.367657
F128	F	-0.589391	-1.157275	0.132343
H129	H	-0.955248	-1.707616	-0.317284
H130	H	-0.455248	-1.207616	0.182716
H131	H	-0.805491	-1.329176	-0.695121
H132	H	-0.305491	-0.829176	-0.195121
H133	H	-0.955268	-1.329259	-0.695142
H134	H	-0.455268	-0.829259	-0.195142
