data_functionalizedCrystal
_audit_creation_method	'MofGen! by Chris Wilmer'
_symmetry_space_group_name_H-M	'P1'
_symmetry_Int_Tables_number	1
_symmetry_cell_setting	triclinic
loop_
_symmetry_equiv_pos_as_xyz
  x,y,z
_cell_length_a	12.759401
_cell_length_b	16.959454
_cell_length_c	12.759393
_cell_angle_alpha	89.969286
_cell_angle_beta	89.981504
_cell_angle_gamma	90.020236
loop_
_atom_site_label
_atom_site_type_symbol
_atom_site_fract_x
_atom_site_fract_y
_atom_site_fract_z
Zn1	Zn	1.606216	-0.314632	-0.593988
Zn2	Zn	2.106216	0.185368	-0.093988
Zn3	Zn	1.606094	-0.446833	-0.418310
Zn4	Zn	2.106094	0.053167	0.081690
Zn5	Zn	1.430518	-0.314673	-0.418327
Zn6	Zn	1.930518	0.185327	0.081673
Zn7	Zn	1.430490	-0.446772	-0.593952
Zn8	Zn	1.930490	0.053228	-0.093952
O9	O	1.518330	-0.380727	-0.506144
O10	O	2.018330	0.119273	-0.006144
O11	O	1.753221	-0.332177	-0.570692
O12	O	2.253221	0.167823	-0.070692
O13	O	1.582764	-0.429345	-0.271291
O14	O	2.082764	0.070655	0.228709
O15	O	1.453888	-0.204057	-0.441651
O16	O	1.953888	0.295943	0.058349
O17	O	1.753131	-0.429304	-0.441622
O18	O	2.253131	0.070696	0.058378
O19	O	1.582972	-0.204026	-0.570708
O20	O	2.082972	0.295974	-0.070708
O21	O	1.453769	-0.332247	-0.271304
O22	O	1.953769	0.167753	0.228696
O23	O	1.283493	-0.332188	-0.441616
O24	O	1.783493	0.167812	0.058384
O25	O	1.453840	-0.429201	-0.740978
O26	O	1.953840	0.070799	-0.240978
O27	O	1.283473	-0.429241	-0.570647
O28	O	1.783473	0.070759	-0.070647
O29	O	1.582945	-0.332118	-0.741004
O30	O	2.082945	0.167882	-0.241004
O31	O	1.582737	-0.557436	-0.441588
O32	O	2.082737	-0.057436	0.058412
O33	O	1.453722	-0.557391	-0.570631
O34	O	1.953722	-0.057391	-0.070631
C35	C	1.245362	-0.380713	-0.506130
C36	C	1.745362	0.119287	-0.006130
C37	C	1.128586	-0.380726	-0.506149
C38	C	1.628586	0.119274	-0.006149
C39	C	1.073740	-0.431342	-0.573224
C40	C	1.573740	0.068658	-0.073224
C41	C	0.964016	-0.431352	-0.573235
C42	C	1.464016	0.068648	-0.073235
C43	C	0.963992	-0.330127	-0.439087
C44	C	1.463992	0.169873	0.060913
C45	C	1.073714	-0.330114	-0.439082
C46	C	1.573714	0.169886	0.060918
C47	C	1.073753	-0.489786	-0.650670
C48	C	1.573753	0.010214	-0.150670
C49	C	0.964029	-0.489796	-0.650681
C50	C	1.464029	0.010204	-0.150681
C51	C	1.518242	-0.586094	-0.506126
C52	C	2.018242	-0.086094	-0.006126
C53	C	1.518300	-0.673950	-0.506154
C54	C	2.018300	-0.173950	-0.006154
C55	C	1.451249	-1.045433	-0.573330
C56	C	1.951249	-0.545433	-0.073330
C57	C	1.585703	-1.045419	-0.439066
C58	C	2.085703	-0.545419	0.060934
C59	C	1.585666	-0.962873	-0.439056
C60	C	2.085666	-0.462873	0.060944
C61	C	1.518419	-0.921603	-0.506183
C62	C	2.018419	-0.421603	-0.006183
C63	C	1.451208	-0.962879	-0.573320
C64	C	1.951208	-0.462879	-0.073320
C65	C	1.652869	-0.921591	-0.371913
C66	C	2.152869	-0.421591	0.128087
C67	C	1.652834	-0.839040	-0.371900
C68	C	2.152834	-0.339040	0.128100
C69	C	1.585591	-0.797769	-0.439033
C70	C	2.085591	-0.297769	0.060967
C71	C	1.518378	-0.839050	-0.506173
C72	C	2.018378	-0.339050	-0.006173
C73	C	1.451130	-0.797780	-0.573300
C74	C	1.951130	-0.297780	-0.073300
C75	C	1.383922	-0.839059	-0.640447
C76	C	1.883922	-0.339059	-0.140447
C77	C	1.383965	-0.921607	-0.640453
C78	C	1.883965	-0.421607	-0.140453
C79	C	1.585548	-0.715220	-0.439027
C80	C	2.085548	-0.215220	0.060973
C81	C	1.451089	-0.715226	-0.573291
C82	C	1.951089	-0.215226	-0.073291
C83	C	1.792363	-0.380743	-0.506159
C84	C	2.292363	0.119257	-0.006159
C85	C	1.909140	-0.380749	-0.506165
C86	C	2.409140	0.119251	-0.006165
C87	C	1.518403	-0.380648	-0.780178
C88	C	2.018403	0.119352	-0.280178
C89	C	1.518435	-0.380614	-0.896954
C90	C	2.018435	0.119386	-0.396954
C91	C	1.518447	-0.174559	-0.506185
C92	C	2.018447	0.325441	-0.006185
C93	C	1.518496	-0.086703	-0.506203
C94	C	2.018496	0.413297	-0.006203
C95	C	1.585669	-0.330058	-0.951832
C96	C	2.085669	0.169942	-0.451832
C97	C	1.585694	-0.330029	-1.061556
C98	C	2.085694	0.169971	-0.561556
C99	C	1.451247	-0.431119	-1.061516
C100	C	1.951247	0.068881	-0.561516
C101	C	1.451218	-0.431143	-0.951793
C102	C	1.951218	0.068857	-0.451793
C103	C	1.663294	-0.271696	-0.951856
C104	C	2.163294	0.228304	-0.451856
C105	C	1.663319	-0.271668	-1.061580
C106	C	2.163319	0.228332	-0.561580
C107	C	1.518317	-0.380750	-0.233177
C108	C	2.018317	0.119250	0.266823
C109	C	1.518489	-0.380561	-0.116401
C110	C	2.018489	0.119439	0.383599
H111	H	1.107760	-0.547906	-0.621387
H112	H	1.607760	-0.047906	-0.121387
F113	F	1.132081	-0.276229	-0.367708
F114	F	1.632081	0.223771	0.132292
H115	H	1.640447	-1.079026	-0.384408
H116	H	2.140447	-0.579026	0.115592
F117	F	0.905585	-0.276265	-0.367715
F118	F	1.405585	0.223735	0.132285
F119	F	1.724437	-0.965517	-0.300481
F120	F	2.224437	-0.465517	0.199519
F121	F	1.112723	-0.468449	-0.757072
F122	F	1.612723	0.031551	-0.257072
H123	H	1.744687	-0.288063	-1.091359
H124	H	2.244687	0.211937	-0.591359
H125	H	1.329246	-0.955225	-0.695119
H126	H	1.829246	-0.455225	-0.195119
F127	F	1.724368	-0.795115	-0.300444
F128	F	2.224368	-0.295115	0.199556
F129	F	0.925069	-0.569785	-0.621989
F130	F	1.425069	-0.069785	-0.121989
H131	H	1.634212	-0.213504	-1.095627
H132	H	2.134212	0.286496	-0.595627
F133	F	1.379729	-1.089364	-0.644792
F134	F	1.879729	-0.589364	-0.144792
H135	H	1.640263	-0.681615	-0.384352
H136	H	2.140263	-0.181615	0.115648
F137	F	1.379644	-0.484941	-0.893392
F138	F	1.879644	0.015059	-0.393392
F139	F	1.379714	-0.484894	-1.119888
F140	F	1.879714	0.015106	-0.619888
F141	F	0.919590	-0.461235	-0.751782
F142	F	1.419590	0.038765	-0.251782
H143	H	1.396332	-0.681629	-0.627958
H144	H	1.896332	-0.181629	-0.127958
H145	H	1.329164	-0.805447	-0.695097
H146	H	1.829164	-0.305447	-0.195097
F147	F	1.634850	-0.191687	-0.912956
F148	F	2.134850	0.308313	-0.412956
H149	H	1.740563	-0.293641	-0.917820
H150	H	2.240563	0.206359	-0.417820
