data_functionalizedCrystal
_audit_creation_method	'MofGen! by Chris Wilmer'
_symmetry_space_group_name_H-M	'P1'
_symmetry_Int_Tables_number	1
_symmetry_cell_setting	triclinic
loop_
_symmetry_equiv_pos_as_xyz
  x,y,z
_cell_length_a	10.654549
_cell_length_b	19.288857
_cell_length_c	9.730223
_cell_angle_alpha	89.993455
_cell_angle_beta	89.997731
_cell_angle_gamma	83.808943
loop_
_atom_site_label
_atom_site_type_symbol
_atom_site_fract_x
_atom_site_fract_y
_atom_site_fract_z
O1	O	1.665746	0.097554	-0.114266
O2	O	1.300068	0.106848	-0.114276
O3	O	1.493479	0.001139	-0.114254
O4	O	1.472336	0.203262	-0.114288
O5	O	1.493466	0.001137	0.114326
O6	O	1.300056	0.106845	0.114304
O7	O	1.665734	0.097551	0.114314
Zn8	Zn	1.482893	0.102198	0.150601
Zn9	Zn	1.482909	0.102201	-0.150563
O10	O	1.472324	0.203260	0.114292
C11	C	1.253279	0.106164	0.000013
C12	C	1.113879	0.104123	0.000010
C13	C	0.902070	0.164439	0.000005
C14	C	1.033050	0.166362	-0.000003
C15	C	1.063724	0.039955	0.000017
C16	C	0.932747	0.038032	0.000016
C17	C	1.492794	-0.024743	0.000037
C18	C	1.490756	-0.101860	0.000041
C19	C	1.489812	-0.138075	-0.124558
C20	C	1.487880	-0.210534	-0.124568
C21	C	1.486917	-0.246776	0.000028
C22	C	1.487855	-0.210552	0.124643
C23	C	1.489774	-0.138094	0.124650
C24	C	1.557425	-0.366547	0.095478
C25	C	1.555514	-0.439005	0.095466
C26	C	1.480991	-0.470261	0.000012
C27	C	1.408397	-0.429052	-0.095453
C28	C	1.410317	-0.356594	-0.095446
C29	C	1.484835	-0.325345	0.000034
C30	C	1.477950	-0.585044	-0.124607
C31	C	1.476010	-0.657504	-0.124612
C32	C	1.475998	-0.657521	0.124603
C33	C	1.477925	-0.585062	0.124605
C34	C	1.478907	-0.548828	-0.000004
C35	C	1.712523	0.098235	0.000023
C36	C	1.851923	0.100276	0.000017
C37	C	1.473008	0.229142	-0.000002
C38	C	1.475046	0.306259	-0.000015
N39	N	1.482891	0.102195	0.356138
N40	N	1.482921	0.102199	-0.356099
C41	C	1.568562	0.055407	0.428073
C42	C	1.568574	0.055407	0.571956
C43	C	1.397241	0.148989	0.571955
C44	C	1.397224	0.148985	0.428075
H45	H	1.490609	-0.108578	-0.226024
H46	H	1.614629	-0.472552	0.173194
H47	H	1.327494	0.187086	0.630541
O48	O	1.304822	0.199453	0.350471
H49	H	1.245269	0.231998	0.424662
H50	H	1.475204	-0.687028	0.226052
O51	O	1.486859	-0.249608	-0.258962
H52	H	1.572813	-0.241483	-0.318697
H53	H	0.836267	0.215122	0.000005
O54	O	1.660976	0.004944	0.649550
H55	H	1.721829	0.034502	0.715091
O56	O	1.087132	0.235569	0.000007
H57	H	1.054630	0.265515	-0.093150
O58	O	1.150895	-0.027178	0.000044
H59	H	1.250398	-0.015063	0.000063
H60	H	1.351206	-0.323044	-0.173174
H61	H	1.478704	-0.555576	0.226067
H62	H	0.891918	-0.014220	0.000021
H63	H	1.347714	-0.454499	-0.173181
O64	O	1.478981	-0.545955	-0.258999
H65	H	1.564177	-0.565642	-0.318761
O66	O	1.474943	-0.696567	-0.259007
H67	H	1.475943	-0.659195	-0.345647
O68	O	1.637814	-0.332837	0.198431
H69	H	1.687986	-0.373664	0.264793
H70	H	1.487067	-0.240065	0.226090
O71	O	1.490815	-0.099027	0.259044
H72	H	1.489830	-0.136399	0.345686
O73	O	1.660924	0.004921	0.350488
H74	H	1.646521	0.012775	0.238352
