data_functionalizedCrystal
_audit_creation_method	'MofGen! by Chris Wilmer'
_symmetry_space_group_name_H-M	'P1'
_symmetry_Int_Tables_number	1
_symmetry_cell_setting	triclinic
loop_
_symmetry_equiv_pos_as_xyz
  x,y,z
_cell_length_a	15.298068
_cell_length_b	15.298853
_cell_length_c	15.296720
_cell_angle_alpha	88.404902
_cell_angle_beta	91.645182
_cell_angle_gamma	88.373576
loop_
_atom_site_label
_atom_site_type_symbol
_atom_site_fract_x
_atom_site_fract_y
_atom_site_fract_z
Zn1	Zn	1.303409	-0.253630	0.692182
Zn2	Zn	1.351258	-0.368134	0.529830
Zn3	Zn	1.180654	-0.245345	0.521498
Zn4	Zn	1.188915	-0.415931	0.644223
O5	O	1.256059	-0.320760	0.596933
O6	O	1.429070	-0.252283	0.694204
O7	O	1.345195	-0.328376	0.409418
O8	O	1.173456	-0.127133	0.560724
O9	O	1.464224	-0.336409	0.574924
O10	O	1.263643	-0.133220	0.686125
O11	O	1.219853	-0.238164	0.403297
O12	O	1.062436	-0.284510	0.514220
O13	O	1.187535	-0.417871	0.769891
O14	O	1.068505	-0.409838	0.604386
O15	O	1.271653	-0.298629	0.805126
O16	O	1.353204	-0.493786	0.528420
O17	O	1.233932	-0.528902	0.612464
C18	C	1.299677	-0.542280	0.566165
C19	C	1.318412	-0.637042	0.553047
C20	C	1.034534	-0.351462	0.553195
C21	C	0.939766	-0.364621	0.534501
C22	C	1.389345	-0.663249	0.503181
C23	C	1.406953	-0.752282	0.490860
C24	C	1.353626	-0.815118	0.528398
C25	C	1.282688	-0.788912	0.578259
C26	C	1.265082	-0.699870	0.590587
C27	C	1.229363	-0.851739	0.615804
C28	C	1.158425	-0.825533	0.665666
C29	C	1.140821	-0.736500	0.677991
C30	C	1.194148	-0.673664	0.640453
C31	C	1.246969	-0.940781	0.603476
C32	C	1.122706	-0.977402	0.690883
C33	C	1.105098	-0.888369	0.703204
C34	C	0.599440	-0.226924	0.730515
C35	C	0.688479	-0.214564	0.748083
C36	C	0.751305	-0.252077	0.694689
C37	C	0.725083	-0.301953	0.623724
C38	C	0.636036	-0.314320	0.606157
C39	C	0.787901	-0.339473	0.570332
C40	C	0.761679	-0.389349	0.499366
C41	C	0.672640	-0.401713	0.481803
C42	C	0.609814	-0.364200	0.535197
C43	C	0.876948	-0.327106	0.587898
C44	C	0.913544	-0.414501	0.463540
C45	C	0.824505	-0.426862	0.445972
C46	C	1.478449	-0.289939	0.640843
C47	C	1.573218	-0.276804	0.659554
C48	C	1.225178	-0.364506	0.819308
C49	C	1.212018	-0.383148	0.914071
C50	C	1.212291	-0.098375	0.627845
C51	C	1.193639	-0.003608	0.641017
C52	C	1.286857	-0.277116	0.375442
C53	C	1.300134	-0.258211	0.280745
C54	C	1.350115	-0.187370	1.254574
C55	C	1.362485	-0.169856	1.165540
C56	C	1.324869	-0.223177	1.102669
C57	C	1.274882	-0.294016	1.128839
C58	C	1.262517	-0.311536	1.217882
C59	C	1.237271	-0.347343	1.065977
C60	C	1.187283	-0.418182	1.092148
C61	C	1.174920	-0.435699	1.181182
C62	C	1.212535	-0.382377	1.244053
C63	C	1.249636	-0.329823	0.976934
C64	C	1.162037	-0.453989	0.940243
C65	C	1.149668	-0.471503	1.029276
H66	H	1.304729	-0.962108	0.562880
O67	O	1.370825	-0.901567	0.516308
C68	C	1.464302	-1.009244	0.450702
C69	C	1.444911	-0.911309	0.464315
H70	H	1.524211	-1.017153	0.408681
H71	H	1.405587	-1.039175	0.416513
H72	H	1.477495	-1.043914	0.516897
H73	H	1.431738	-0.876566	0.398157
H74	H	1.503638	-0.881444	0.498545
O75	O	1.200556	-0.399546	1.330523
C76	C	1.220852	-0.503358	1.451279
C77	C	1.234451	-0.484040	1.353337
H78	H	1.248265	-0.571662	1.469758
H79	H	1.147987	-0.499637	1.464913
H80	H	1.256292	-0.453038	1.491690
H81	H	1.199063	-0.534340	1.312861
H82	H	1.307331	-0.487730	1.339771
O83	O	1.441131	-0.602287	0.466582
C84	C	1.497334	-0.540733	0.333555
C85	C	1.438669	-0.609829	0.374893
H86	H	1.495349	-0.546794	0.259418
H87	H	1.567462	-0.551593	0.359667
H88	H	1.472571	-0.472609	0.350982
H89	H	1.463354	-0.677981	0.357484
H90	H	1.368551	-0.598892	0.348781
O91	O	0.647315	-0.450159	0.412813
C92	C	0.693014	-0.535580	0.291351
C93	C	0.721812	-0.480719	0.369440
H94	H	0.753230	-0.560319	0.256273
H95	H	0.649811	-0.493425	0.244000
H96	H	0.654674	-0.593665	0.316012
H97	H	0.760187	-0.422629	0.344859
H98	H	0.764972	-0.522935	0.416776
H99	H	1.179815	-0.601164	0.650482
H100	H	1.290335	-0.272145	0.955635
H101	H	0.548281	-0.196393	0.773985
O102	O	0.799139	-0.475429	0.377086
C103	C	0.806172	-0.616003	0.309981
C104	C	0.834981	-0.561095	0.388031
H105	H	0.835123	-0.685280	0.318812
H106	H	0.830267	-0.585042	0.246782
H107	H	0.731738	-0.618347	0.306595
H108	H	0.909409	-0.558732	0.391499
H109	H	0.810822	-0.592076	0.451192
H110	H	1.464712	-0.773612	0.450262
O111	O	1.071856	-0.711190	0.726420
C112	C	0.950488	-0.756914	0.811850
C113	C	1.028550	-0.785695	0.757010
H114	H	0.915464	-0.817136	0.836612
H115	H	0.903091	-0.713794	0.769661
H116	H	0.975161	-0.718497	0.869931
H117	H	1.003957	-0.824146	0.698924
H118	H	1.075932	-0.828771	0.799259
H119	H	0.537310	-0.374268	0.520901
O120	O	1.337053	-0.206136	1.016216
C121	C	1.440878	-0.191611	0.901558
C122	C	1.427196	-0.210917	0.999488
H123	H	1.513753	-0.195487	0.887999
H124	H	1.413621	-0.123255	0.883043
H125	H	1.405372	-0.241863	0.861118
H126	H	1.462700	-0.160721	1.039995
H127	H	1.454428	-0.279297	1.017934
O128	O	0.974676	-0.450852	0.411732
C129	C	1.128075	-0.470578	0.383715
C130	C	1.058929	-0.429345	0.442437
H131	H	1.196210	-0.453220	0.408529
H132	H	1.117193	-0.444400	0.313624
H133	H	1.122008	-0.544699	0.385554
H134	H	1.064955	-0.355223	0.440673
H135	H	1.069833	-0.455591	0.512500
H136	H	1.047338	-0.867021	0.743802
H137	H	0.823804	-0.242007	0.708995
O138	O	1.070963	-1.038544	0.727258
C139	C	1.043051	-1.191946	0.747051
C140	C	1.101698	-1.122788	0.705790
H141	H	1.067889	-1.260073	0.729724
H142	H	0.972943	-1.181150	0.720856
H143	H	1.044937	-1.185807	0.821179
H144	H	1.099886	-1.128886	0.631660
H145	H	1.171778	-1.133605	0.732053
O146	O	1.101061	-0.540331	1.054553
C147	C	1.015525	-0.661673	1.008773
C148	C	1.070533	-0.583744	0.980026
H149	H	0.990844	-0.696806	0.948534
H150	H	0.957406	-0.636951	1.047058
H151	H	1.057660	-0.708995	1.052022
H152	H	1.028471	-0.536392	0.936746
H153	H	1.128658	-0.608530	0.941788
O154	O	1.411028	-0.100988	1.140267
C155	C	1.496652	0.020286	1.186064
C156	C	1.441678	-0.057671	1.214805
H157	H	1.521463	0.055320	1.246312
H158	H	1.454550	0.067704	1.142886
H159	H	1.554696	-0.004495	1.147708
H160	H	1.383629	-0.032969	1.253195
H161	H	1.483841	-0.105073	1.257939
O162	O	1.126312	-0.504526	1.206455
C163	C	1.040774	-0.625864	1.160665
C164	C	1.095785	-0.547934	1.131924
H165	H	1.016093	-0.660992	1.100424
H166	H	0.982654	-0.601143	1.198950
H167	H	1.082907	-0.673189	1.203911
H168	H	1.053724	-0.500579	1.088646
H169	H	1.153910	-0.572719	1.093686
H170	H	0.898289	-0.286495	0.645678
H171	H	1.131409	-0.497409	0.889052
H172	H	1.380742	-0.143968	1.305770
H173	H	0.709822	-0.173958	0.805866
