data_functionalizedCrystal
_audit_creation_method	'MofGen! by Chris Wilmer'
_symmetry_space_group_name_H-M	'P1'
_symmetry_Int_Tables_number	1
_symmetry_cell_setting	triclinic
loop_
_symmetry_equiv_pos_as_xyz
  x,y,z
_cell_length_a	12.759395
_cell_length_b	16.959454
_cell_length_c	12.759395
_cell_angle_alpha	90.006969
_cell_angle_beta	90.001380
_cell_angle_gamma	90.021612
loop_
_atom_site_label
_atom_site_type_symbol
_atom_site_fract_x
_atom_site_fract_y
_atom_site_fract_z
Zn1	Zn	1.606031	-0.314788	0.594010
Zn2	Zn	1.605964	-0.446935	0.418333
Zn3	Zn	1.430388	-0.314778	0.418347
Zn4	Zn	1.430305	-0.446932	0.593972
O5	O	1.518172	-0.380858	0.506165
O6	O	1.753043	-0.332323	0.570716
O7	O	1.582680	-0.429401	0.271313
O8	O	1.453750	-0.204168	0.441671
O9	O	1.752994	-0.429411	0.441647
O10	O	1.582794	-0.204176	0.570730
O11	O	1.453685	-0.332305	0.271324
O12	O	1.283356	-0.332303	0.441634
O13	O	1.453609	-0.429406	0.740998
O14	O	1.283295	-0.429396	0.570665
O15	O	1.582714	-0.332320	0.741026
O16	O	1.582600	-0.557545	0.441610
O17	O	1.453544	-0.557543	0.570651
C18	C	1.245205	-0.380848	0.506147
C19	C	1.128428	-0.380863	0.506164
C20	C	1.128403	-0.482130	0.640307
C21	C	1.073530	-0.532769	0.707381
C22	C	0.963808	-0.532779	0.707394
C23	C	0.908957	-0.482142	0.640327
C24	C	0.963831	-0.431502	0.573253
C25	C	1.073555	-0.431500	0.573245
C26	C	0.963855	-0.330233	0.439118
C27	C	1.073577	-0.330226	0.439098
C28	C	0.909004	-0.279596	0.372052
C29	C	0.963877	-0.228959	0.304970
C30	C	1.073606	-0.228953	0.304959
C31	C	1.128450	-0.279587	0.372024
C32	C	1.518084	-0.586224	0.506147
C33	C	1.518142	-0.674081	0.506175
C34	C	1.451070	-1.045585	0.573350
C35	C	1.585566	-1.045527	0.439088
C36	C	1.585530	-0.962982	0.439078
C37	C	1.518261	-0.921734	0.506204
C38	C	1.451029	-0.963032	0.573340
C39	C	1.652753	-0.921677	0.371936
C40	C	1.652718	-0.839127	0.371923
C41	C	1.585454	-0.797877	0.439055
C42	C	1.518220	-0.839180	0.506194
C43	C	1.450951	-0.797932	0.573320
C44	C	1.383722	-0.839234	0.640466
C45	C	1.383765	-0.921782	0.640472
C46	C	1.585411	-0.715329	0.439049
C47	C	1.450910	-0.715379	0.573311
C48	C	1.792205	-0.380868	0.506184
C49	C	1.908982	-0.380873	0.506192
C50	C	1.518160	-0.380864	0.780199
C51	C	1.518155	-0.380866	0.896975
C52	C	1.518289	-0.174690	0.506206
C53	C	1.518339	-0.086833	0.506224
C54	C	1.652490	-0.481982	1.116389
C55	C	1.719646	-0.532535	1.061513
C56	C	1.719642	-0.532532	0.951791
C57	C	1.652472	-0.481973	0.896944
C58	C	1.585315	-0.431421	0.951820
C59	C	1.585329	-0.431428	1.061544
C60	C	1.450998	-0.330314	0.951852
C61	C	1.451006	-0.330312	1.061574
C62	C	1.383828	-0.279755	0.897004
C63	C	1.316675	-0.229198	0.951881
C64	C	1.316683	-0.229202	1.061609
C65	C	1.383850	-0.279759	1.116450
C66	C	1.518175	-0.380871	1.233198
C67	C	1.518177	-0.380870	1.116421
H68	H	0.819616	-0.482147	0.640353
H69	H	1.118202	-0.573995	0.761987
H70	H	1.652510	-0.481982	1.205731
C71	C	1.793531	-0.588142	1.121846
H72	H	1.783927	-0.580901	1.195052
H73	H	1.778127	-0.641250	1.103854
H74	H	1.864130	-0.576570	1.103861
H75	H	1.383867	-0.279765	1.205791
H76	H	1.217791	-0.279588	0.372018
C77	C	1.726755	-0.967049	0.298119
H78	H	1.717162	-1.022127	0.307756
H79	H	1.711447	-0.953552	0.227507
H80	H	1.797325	-0.953472	0.313573
H81	H	1.217744	-0.482133	0.640295
H82	H	1.774332	-0.573691	0.907111
H83	H	1.383825	-0.279760	0.807663
H84	H	0.819663	-0.279604	0.372071
H85	H	1.329029	-0.955417	0.695137
H86	H	1.707460	-0.805504	0.317251
H87	H	0.919131	-0.574010	0.762017
H88	H	1.261986	-0.188041	0.907216
C89	C	1.133963	-0.173248	0.231181
H90	H	1.207166	-0.180489	0.240779
H91	H	1.115965	-0.184723	0.160564
H92	H	1.116003	-0.120158	0.246699
C93	C	1.376915	-0.670012	0.647153
H94	H	1.336881	-0.706434	0.687134
H95	H	1.417049	-0.637777	0.692957
H96	H	1.331148	-0.637846	0.606913
C97	C	1.309732	-0.793859	0.714305
H98	H	1.269695	-0.830275	0.754293
H99	H	1.349871	-0.761623	0.760103
H100	H	1.263968	-0.761693	0.674062
C101	C	1.242811	-0.173593	1.121965
H102	H	1.202816	-0.143482	1.073583
H103	H	1.197020	-0.203825	1.164767
H104	H	1.283031	-0.139151	1.164769
C105	C	1.377121	-1.091011	0.647201
H106	H	1.386771	-1.146083	0.637593
H107	H	1.392426	-1.077460	0.717802
H108	H	1.306533	-1.077525	0.631751
C109	C	1.652462	-0.481975	0.776253
H110	H	1.702079	-0.519321	0.751426
H111	H	1.584653	-0.495635	0.751433
H112	H	1.670670	-0.430965	0.751441
H113	H	0.919209	-0.187731	0.250375
H114	H	1.640327	-1.079116	0.384430
H115	H	1.640143	-0.681705	0.384375
