data_functionalizedCrystal
_audit_creation_method	'MofGen! by Chris Wilmer'
_symmetry_space_group_name_H-M	'P1'
_symmetry_Int_Tables_number	1
_symmetry_cell_setting	triclinic
loop_
_symmetry_equiv_pos_as_xyz
  x,y,z
_cell_length_a	9.065218
_cell_length_b	8.140239
_cell_length_c	14.971486
_cell_angle_alpha	90.003728
_cell_angle_beta	84.315007
_cell_angle_gamma	90.002802
loop_
_atom_site_label
_atom_site_type_symbol
_atom_site_fract_x
_atom_site_fract_y
_atom_site_fract_z
O1	O	1.957738	0.136619	0.131152
O2	O	1.528235	0.136621	0.141910
O3	O	1.754499	0.136608	0.006417
O4	O	1.731475	0.136632	0.266645
O5	O	1.754486	-0.136619	0.006415
O6	O	1.528223	-0.136606	0.141908
O7	O	1.957726	-0.136608	0.131151
Zn8	Zn	1.742972	-0.179988	0.136529
Zn9	Zn	1.742989	0.180001	0.136531
O10	O	1.731463	-0.136595	0.266644
C11	C	1.473263	0.000008	0.140875
C12	C	1.309483	0.000009	0.137784
N13	N	1.742972	-0.425670	0.136527
C14	C	2.012698	0.000009	0.132185
C15	C	2.176478	0.000019	0.135277
C16	C	1.753463	-0.000005	-0.026916
C17	C	1.750377	-0.000003	-0.126237
N18	N	1.743001	0.425683	0.136526
C19	C	1.883301	-0.000005	-0.182471
C20	C	1.880393	0.000011	-0.275792
C21	C	1.744560	0.000018	-0.312877
C22	C	1.611626	0.000025	-0.256635
C23	C	1.614535	0.000020	-0.163316
C24	C	1.605571	0.000031	-0.451143
C25	C	1.602660	0.000033	-0.544468
C26	C	1.871428	0.000022	-0.563619
C27	C	1.874338	0.000017	-0.470300
C28	C	1.741403	0.000021	-0.414064
C29	C	1.732498	0.000021	0.299977
C30	C	1.735584	0.000031	0.399297
H31	H	1.993912	-0.000021	-0.152285
H32	H	1.506295	0.000022	-0.117530
H33	H	1.492053	0.000012	-0.574659
Cl34	Cl	2.047505	0.000004	-0.346484
H35	H	1.984945	-0.000000	-0.440109
Cl36	Cl	2.038546	0.000026	-0.634315
H37	H	1.497321	0.000038	-0.405358
H38	H	1.501028	0.000041	-0.286837
