data_functionalizedCrystal
_audit_creation_method	'MofGen! by Chris Wilmer'
_symmetry_space_group_name_H-M	'P1'
_symmetry_Int_Tables_number	1
_symmetry_cell_setting	triclinic
loop_
_symmetry_equiv_pos_as_xyz
  x,y,z
_cell_length_a	14.908571
_cell_length_b	14.908520
_cell_length_c	14.908308
_cell_angle_alpha	83.639235
_cell_angle_beta	89.824947
_cell_angle_gamma	90.205961
loop_
_atom_site_label
_atom_site_type_symbol
_atom_site_fract_x
_atom_site_fract_y
_atom_site_fract_z
Zn1	Zn	1.316651	-0.470613	0.613065
Zn2	Zn	1.816651	0.029387	1.113065
Zn3	Zn	1.316549	-0.613252	0.470429
Zn4	Zn	1.816549	-0.113252	0.970429
Zn5	Zn	1.176020	-0.453291	0.453125
Zn6	Zn	1.676020	0.046709	0.953125
Zn7	Zn	1.157642	-0.612180	0.612023
Zn8	Zn	1.657642	-0.112180	1.112023
O9	O	1.241715	-0.537334	0.537161
O10	O	1.741715	-0.037334	1.037161
O11	O	1.441995	-0.497231	0.601822
O12	O	1.941995	0.002769	1.101822
O13	O	1.305556	-0.585232	0.341941
O14	O	1.805556	-0.085232	0.841941
O15	O	1.202409	-0.329399	0.467536
O16	O	1.702409	0.170601	0.967536
O17	O	1.441920	-0.602028	0.497029
O18	O	1.941920	-0.102028	0.997029
O19	O	1.305730	-0.342124	0.585043
O20	O	1.805730	0.157876	1.085043
O21	O	1.202310	-0.467710	0.329228
O22	O	1.702310	0.032290	0.829228
O23	O	1.048225	-0.466671	0.466525
O24	O	1.548225	0.033329	0.966525
O25	O	1.171086	-0.600202	0.738354
O26	O	1.671086	-0.100202	1.238354
O27	O	1.034722	-0.583406	0.583267
O28	O	1.534722	-0.083406	1.083267
O29	O	1.287909	-0.496192	0.739120
O30	O	1.787909	0.003808	1.239120
O31	O	1.287736	-0.739300	0.496018
O32	O	1.787736	-0.239300	0.996018
O33	O	1.170987	-0.738513	0.600046
O34	O	1.670987	-0.238513	1.100046
C35	C	1.008970	-0.523043	0.522906
C36	C	1.508970	-0.023043	1.022906
C37	C	0.909397	-0.516953	0.516830
C38	C	1.409397	-0.016953	1.016830
C39	C	1.227379	-0.771629	0.549818
C40	C	1.727379	-0.271629	1.049818
C41	C	1.221326	-0.871868	0.555268
C42	C	1.721326	-0.371868	1.055268
C43	C	0.708277	-0.627234	0.626831
C44	C	1.208277	-0.127234	1.126831
C45	C	0.614720	-0.621514	0.621125
C46	C	1.114720	-0.121514	1.121125
C47	C	0.628723	-0.499789	0.499719
C48	C	1.128723	0.000211	0.999719
C49	C	0.722281	-0.505509	0.505424
C50	C	1.222281	-0.005509	1.005424
C51	C	0.762054	-0.569235	0.568981
C52	C	1.262054	-0.069235	1.068981
C53	C	0.855613	-0.574958	0.574682
C54	C	1.355613	-0.074958	1.074682
C55	C	0.869615	-0.453230	0.453280
C56	C	1.369615	0.046770	0.953280
C57	C	0.776058	-0.447510	0.447575
C58	C	1.276058	0.052490	0.947575
C59	C	1.331634	-1.060998	0.457284
C60	C	1.831634	-0.560998	0.957284
C61	C	1.325950	-1.155181	0.462402
C62	C	1.825950	-0.655181	0.962402
C63	C	1.204279	-1.154420	0.570626
C64	C	1.704279	-0.654420	1.070626
C65	C	1.209963	-1.060237	0.565508
C66	C	1.709963	-0.560237	1.065508
C67	C	1.273642	-1.013529	0.508834
C68	C	1.773642	-0.513529	1.008834
C69	C	1.279321	-0.919343	0.503712
C70	C	1.779321	-0.419343	1.003712
C71	C	1.157655	-0.918584	0.611940
C72	C	1.657655	-0.418584	1.111940
C73	C	1.151970	-1.012768	0.617058
C74	C	1.651970	-0.512768	1.117058
C75	C	1.475370	-0.551681	0.551472
C76	C	1.975370	-0.051681	1.051472
C77	C	1.574939	-0.557795	0.557571
C78	C	2.074939	-0.057795	1.057571
C79	C	1.227459	-0.550010	0.772372
C80	C	1.727459	-0.050010	1.272372
C81	C	1.221383	-0.555411	0.872606
C82	C	1.721383	-0.055411	1.372606
C83	C	1.256131	-0.302127	0.524476
C84	C	1.756131	0.197873	1.024476
C85	C	1.262274	-0.201896	0.519070
C86	C	1.762274	0.298104	1.019070
C87	C	1.255972	-0.524646	0.302864
C88	C	1.755972	-0.024646	0.802864
C89	C	1.262236	-0.519001	0.202628
C90	C	1.762236	-0.019001	0.702628
C91	C	1.331614	-0.457236	1.061752
C92	C	1.831614	0.042764	1.561752
C93	C	1.325908	-0.462308	1.155930
C94	C	1.825908	0.037692	1.655930
C95	C	1.204264	-0.570623	1.155141
C96	C	1.704264	-0.070623	1.655141
C97	C	1.209969	-0.565551	1.060963
C98	C	1.709969	-0.065551	1.560963
C99	C	1.273647	-0.508856	1.014272
C100	C	1.773647	-0.008856	1.514272
C101	C	1.279356	-0.503789	0.920093
C102	C	1.779356	-0.003789	1.420093
C103	C	1.157708	-0.612099	0.919305
C104	C	1.657708	-0.112099	1.419305
C105	C	1.152002	-0.617171	1.013483
C106	C	1.652002	-0.117171	1.513483
H107	H	0.887995	-0.626848	0.626432
H108	H	1.387995	-0.126848	1.126432
F109	F	1.399394	-1.011285	0.396957
F110	F	1.899394	-0.511285	0.896957
F111	F	1.347129	-0.443453	0.870402
F112	F	1.847129	0.056547	1.370402
H113	H	0.743661	-0.395624	0.395831
H114	H	1.243661	0.104376	0.895831
F115	F	0.926855	-0.391504	0.391703
F116	F	1.426855	0.108496	0.891703
H117	H	1.373109	-0.420271	1.194585
H118	H	1.873109	0.079729	1.694585
H119	H	1.110431	-0.879924	0.653913
H120	H	1.610431	-0.379924	1.153913
F121	F	1.399391	-0.396907	1.012059
F122	F	1.899391	0.103093	1.512059
F123	F	0.557489	-0.683244	0.682698
F124	F	1.057489	-0.183244	1.182698
H125	H	1.373175	-1.193828	0.420427
H126	H	1.873175	-0.693828	0.920427
H127	H	0.740661	-0.679126	0.678577
H128	H	1.240661	-0.179126	1.178577
H129	H	1.152420	-0.616780	1.193173
H130	H	1.652420	-0.116780	1.693173
F131	F	1.347090	-0.869634	0.443392
F132	F	1.847090	-0.369634	0.943392
F133	F	1.136522	-1.204146	0.630947
F134	F	1.636522	-0.704146	1.130947
H135	H	1.110509	-0.654134	0.880636
H136	H	1.610509	-0.154134	1.380636
H137	H	0.596323	-0.447902	0.447979
H138	H	1.096323	0.052098	0.947979
F139	F	1.084206	-1.062487	0.677374
F140	F	1.584206	-0.562487	1.177374
F141	F	1.084234	-0.677504	1.063184
F142	F	1.584234	-0.177504	1.563184
