data_functionalizedCrystal
_audit_creation_method	'MofGen! by Chris Wilmer'
_symmetry_space_group_name_H-M	'P1'
_symmetry_Int_Tables_number	1
_symmetry_cell_setting	triclinic
loop_
_symmetry_equiv_pos_as_xyz
  x,y,z
_cell_length_a	12.759394
_cell_length_b	12.759401
_cell_length_c	12.759393
_cell_angle_alpha	89.981504
_cell_angle_beta	90.032294
_cell_angle_gamma	89.985002
loop_
_atom_site_label
_atom_site_type_symbol
_atom_site_fract_x
_atom_site_fract_y
_atom_site_fract_z
Zn1	Zn	-0.418200	-1.606254	0.593976
Zn2	Zn	-0.593919	-1.606148	0.418294
Zn3	Zn	-0.418255	-1.430556	0.418315
Zn4	Zn	-0.593838	-1.430545	0.593935
O5	O	-0.506053	-1.518376	0.506130
O6	O	-0.441520	-1.753261	0.570679
O7	O	-0.570674	-1.582816	0.271276
O8	O	-0.271227	-1.453912	0.441643
O9	O	-0.570620	-1.753183	0.441607
O10	O	-0.271186	-1.582997	0.570700
O11	O	-0.441614	-1.453810	0.271291
O12	O	-0.441536	-1.283534	0.441604
O13	O	-0.570482	-1.453892	0.740962
O14	O	-0.570536	-1.283525	0.570631
O15	O	-0.441442	-1.582986	0.740992
O16	O	-0.740929	-1.582805	0.441567
O17	O	-0.740870	-1.453789	0.570610
C18	C	-0.506034	-1.245409	0.506116
C19	C	-0.506051	-1.128632	0.506135
C20	C	-0.779021	-1.518313	0.506105
C21	C	-0.895797	-1.518382	0.506129
C22	C	-0.505947	-1.518449	0.780164
C23	C	-0.505902	-1.518481	0.896940
C24	C	-0.895806	-1.652826	0.371857
C25	C	-0.950671	-1.720076	0.304734
C26	C	-1.060392	-1.720138	0.304762
C27	C	-1.115251	-1.652945	0.371924
C28	C	-1.060386	-1.585695	0.439047
C29	C	-0.950662	-1.585638	0.439009
C30	C	-1.060378	-1.451257	0.573323
C31	C	-0.950656	-1.451189	0.573291
C32	C	-1.115237	-1.384064	0.640484
C33	C	-1.060372	-1.316808	0.707604
C34	C	-0.950644	-1.316748	0.707572
C35	C	-0.895791	-1.383939	0.640414
C36	C	-0.232020	-1.518468	0.506179
C37	C	-0.115243	-1.518507	0.506199
C38	C	-0.506073	-1.792409	0.506145
C39	C	-0.506082	-1.909186	0.506151
C40	C	-0.573329	-1.073793	0.573208
C41	C	-0.573342	-0.964069	0.573219
C42	C	-0.438796	-0.964032	0.439075
C43	C	-0.438779	-1.073755	0.439070
C44	C	-0.640601	-1.128670	0.640273
C45	C	-0.707885	-1.073831	0.707351
C46	C	-0.707898	-0.964107	0.707362
C47	C	-0.640627	-0.909222	0.640296
C48	C	-0.506083	-1.518363	0.233163
C49	C	-0.505832	-1.518535	0.116387
C50	C	-0.438704	-1.585709	0.951820
C51	C	-0.438666	-1.585734	1.061544
C52	C	-0.573033	-1.451300	1.061500
C53	C	-0.573065	-1.451270	0.951778
C54	C	-0.371541	-1.652919	0.896982
C55	C	-0.304339	-1.720154	0.951862
C56	C	-0.304301	-1.720179	1.061586
C57	C	-0.371465	-1.652969	1.116431
H58	H	-0.905995	-1.774786	0.250053
C59	C	-0.365777	-1.133492	0.366360
C60	C	-0.380140	-1.241327	0.380734
C61	C	-0.312895	-1.296389	0.313785
H62	H	-0.381003	-1.115613	0.295699
H63	H	-0.295184	-1.115585	0.381872
H64	H	-0.450717	-1.259226	0.365215
H65	H	-0.364907	-1.259237	0.451381
H66	H	-0.242302	-1.278482	0.329297
H67	H	-0.328126	-1.278502	0.243128
H68	H	-0.322624	-1.369560	0.323535
H69	H	-0.640599	-1.218013	0.640269
C70	C	-0.365599	-0.904499	0.366387
C71	C	-0.261667	-0.931179	0.389456
C72	C	-0.194212	-0.876347	0.322522
H73	H	-0.380751	-0.922407	0.295731
H74	H	-0.375179	-0.831289	0.376005
H75	H	-0.252092	-1.004372	0.379828
H76	H	-0.246482	-0.913267	0.460099
H77	H	-0.203792	-0.803137	0.332141
H78	H	-0.209374	-0.894260	0.251870
H79	H	-0.123687	-0.894434	0.338171
C80	C	-0.371388	-1.653009	0.777854
C81	C	-0.298171	-1.726237	0.741573
C82	C	-0.297995	-1.726339	0.631839
H83	H	-0.439136	-1.671179	0.752888
H84	H	-0.353164	-1.585230	0.752993
H85	H	-0.316401	-1.794001	0.766423
H86	H	-0.230413	-1.708084	0.766509
H87	H	-0.279771	-1.658560	0.606978
H88	H	-0.365746	-1.744507	0.606884
H89	H	-0.248312	-1.776016	0.607208
H90	H	-0.762648	-1.118526	0.761961
H91	H	-0.249650	-1.774867	0.907200
C92	C	-0.645920	-1.378458	1.121232
C93	C	-0.631530	-1.392896	1.229068
C94	C	-0.698670	-1.325825	1.284124
H95	H	-0.630614	-1.307823	1.103381
H96	H	-0.716539	-1.393819	1.103290
H97	H	-0.560927	-1.377528	1.247002
H98	H	-0.646844	-1.463516	1.246950
H99	H	-0.769289	-1.341186	1.266182
H100	H	-0.683359	-1.255194	1.266265
H101	H	-0.688923	-1.335619	1.357296
H102	H	-1.105063	-1.774903	0.250110
C103	C	-0.231299	-1.793284	1.120982
C104	C	-0.172510	-1.852151	1.049469
C105	C	-0.105262	-1.919522	1.104143
H106	H	-0.185408	-1.753242	1.163796
H107	H	-0.271458	-1.839112	1.163756
H108	H	-0.132353	-1.806329	1.006713
H109	H	-0.218373	-1.892215	1.006652
H110	H	-0.145421	-1.965350	1.146917
H111	H	-0.059378	-1.879471	1.146956
H112	H	-0.065372	-1.959478	1.055630
C113	C	-0.371310	-1.653190	1.235561
C114	C	-0.298101	-1.726468	1.271888
C115	C	-0.297945	-1.726716	1.381622
H116	H	-0.353093	-1.585467	1.260518
H117	H	-0.439086	-1.671394	1.260401
H118	H	-0.230340	-1.708257	1.247059
H119	H	-0.316302	-1.794200	1.246961
H120	H	-0.365720	-1.744920	1.406462
H121	H	-0.279729	-1.658990	1.406568
H122	H	-0.248281	-1.776440	1.406284
H123	H	-0.806465	-1.652770	0.371814
H124	H	-0.627767	-1.396511	0.907094
C125	C	-1.234364	-1.384017	0.640716
C126	C	-1.270660	-1.310802	0.713918
C127	C	-1.380393	-1.310737	0.714173
H128	H	-1.259394	-1.365853	0.572976
H129	H	-1.259150	-1.451804	0.658995
H130	H	-1.245884	-1.243030	0.695633
H131	H	-1.245658	-1.328949	0.781669
H132	H	-1.405180	-1.378524	0.732451
H133	H	-1.405413	-1.292575	0.646429
H134	H	-1.405034	-1.261069	0.763845
C135	C	-1.119877	-1.243995	0.780692
C136	C	-1.093096	-1.266825	0.884653
C137	C	-1.147906	-1.199780	0.952011
H138	H	-1.102020	-1.173362	0.765396
H139	H	-1.193090	-1.253679	0.771172
H140	H	-1.019899	-1.257133	0.894169
H141	H	-1.110955	-1.337447	0.899982
H142	H	-1.221119	-1.209464	0.942491
H143	H	-1.130045	-1.129151	0.936705
H144	H	-1.129750	-1.215267	1.022556
C145	C	-0.781057	-0.904755	0.780229
C146	C	-0.839980	-0.976303	0.838938
C147	C	-0.907400	-0.921669	0.906063
H148	H	-0.741048	-0.861972	0.826176
H149	H	-0.826847	-0.861953	0.739984
H150	H	-0.794196	-1.019087	0.879181
H151	H	-0.880011	-1.019088	0.793020
H152	H	-0.953190	-0.878867	0.865818
H153	H	-0.867383	-0.878888	0.952002
H154	H	-0.947394	-0.970206	0.945898
C155	C	-0.891022	-1.243909	0.780583
C156	C	-0.827943	-1.303335	0.847964
C157	C	-0.773019	-1.236273	0.915246
H158	H	-0.848206	-1.198102	0.740470
H159	H	-0.939376	-1.203924	0.820645
H160	H	-0.779594	-1.343303	0.807906
H161	H	-0.870733	-1.349139	0.888100
H162	H	-0.821374	-1.196287	0.955308
H163	H	-0.730209	-1.190469	0.875125
H164	H	-0.730221	-1.276583	0.960979
H165	H	-0.806450	-1.383890	0.640375
H166	H	-0.640635	-0.819877	0.640319
H167	H	-1.204592	-1.653010	0.371950
