data_functionalizedCrystal
_audit_creation_method	'MofGen! by Chris Wilmer'
_symmetry_space_group_name_H-M	'P1'
_symmetry_Int_Tables_number	1
_symmetry_cell_setting	triclinic
loop_
_symmetry_equiv_pos_as_xyz
  x,y,z
_cell_length_a	13.032831
_cell_length_b	13.032721
_cell_length_c	13.032268
_cell_angle_alpha	103.289627
_cell_angle_beta	90.886977
_cell_angle_gamma	90.902885
loop_
_atom_site_label
_atom_site_type_symbol
_atom_site_fract_x
_atom_site_fract_y
_atom_site_fract_z
Zn1	Zn	1.399428	-0.702884	-0.857492
Zn2	Zn	1.899428	-0.202884	-0.357492
Zn3	Zn	1.399318	-0.857952	-0.702424
Zn4	Zn	1.899318	-0.357952	-0.202424
Zn5	Zn	1.255414	-0.659406	-0.658991
Zn6	Zn	1.755414	-0.159406	-0.158991
Zn7	Zn	1.206359	-0.852325	-0.851935
Zn8	Zn	1.706359	-0.352325	-0.351935
O9	O	1.315130	-0.768142	-0.767710
O10	O	1.815130	-0.268142	-0.267710
O11	O	1.540438	-0.744005	-0.857424
O12	O	2.040438	-0.244005	-0.357424
O13	O	1.400712	-0.815774	-0.551018
O14	O	1.900712	-0.315774	-0.051018
O15	O	1.295093	-0.519539	-0.669471
O16	O	1.795093	-0.019539	-0.169471
O17	O	1.540357	-0.857933	-0.743496
O18	O	2.040357	-0.357933	-0.243496
O19	O	1.400900	-0.551483	-0.815309
O20	O	1.900900	-0.051483	-0.315309
O21	O	1.294986	-0.669903	-0.519108
O22	O	1.794986	-0.169903	-0.019108
O23	O	1.107882	-0.664446	-0.664083
O24	O	1.607882	-0.164446	-0.164083
O25	O	1.211487	-0.848342	-0.998317
O26	O	1.711487	-0.348342	-0.498317
O27	O	1.071842	-0.806183	-0.805839
O28	O	1.571842	-0.306183	-0.305839
O29	O	1.353334	-0.738549	-1.002399
O30	O	1.853334	-0.238549	-0.502399
O31	O	1.353146	-1.002840	-0.738108
O32	O	1.853146	-0.502840	-0.238108
O33	O	1.211380	-0.998706	-0.847953
O34	O	1.711380	-0.498706	-0.347953
C35	C	1.053296	-0.729987	-0.729646
C36	C	1.553296	-0.229987	-0.229646
C37	C	0.941275	-0.713692	-0.713389
C38	C	1.441275	-0.213692	-0.213389
C39	C	0.873527	-0.776647	-0.776195
C40	C	1.373527	-0.276647	-0.276195
C41	C	0.757747	-0.759806	-0.759394
C42	C	1.257747	-0.259806	-0.259394
C43	C	1.276952	-1.038540	-0.797167
C44	C	1.776952	-0.538540	-0.297167
C45	C	1.260707	-1.154235	-0.809817
C46	C	1.760707	-0.654235	-0.309817
C47	C	1.323655	-1.207840	-0.761163
C48	C	1.823655	-0.707840	-0.261163
C49	C	1.306867	-1.327417	-0.774236
C50	C	1.806867	-0.827417	-0.274236
C51	C	1.577986	-0.806447	-0.805925
C52	C	2.077986	-0.306447	-0.305925
C53	C	1.690000	-0.822770	-0.822209
C54	C	2.190000	-0.322770	-0.322209
C55	C	1.276951	-0.797668	-1.039178
C56	C	1.776951	-0.297668	-0.539178
C57	C	1.260681	-0.810250	-1.154861
C58	C	1.760681	-0.310250	-0.654861
C59	C	1.353481	-0.496694	-0.738165
C60	C	1.853481	0.003306	-0.238165
C61	C	1.369823	-0.381019	-0.725575
C62	C	1.869823	0.118981	-0.225575
C63	C	1.323611	-0.761535	-1.208456
C64	C	1.823611	-0.261535	-0.708456
C65	C	1.306797	-0.774538	-1.328021
C66	C	1.806797	-0.274538	-0.828021
C67	C	1.353229	-0.738664	-0.497299
C68	C	1.853229	-0.238664	0.002701
C69	C	1.369735	-0.725817	-0.381613
C70	C	1.869735	-0.225817	0.118387
H71	H	0.913561	-0.647322	-0.647184
H72	H	1.413561	-0.147322	-0.147184
H73	H	1.194352	-0.861574	-1.197492
H74	H	1.694352	-0.361574	-0.697492
Cl75	Cl	0.916305	-0.879118	-0.878416
Cl76	Cl	1.416305	-0.379118	-0.378416
H77	H	1.240544	-1.370047	-0.825578
H78	H	1.740544	-0.870047	-0.325578
H79	H	1.436153	-1.338392	-0.674242
H80	H	1.936153	-0.838392	-0.174242
Cl81	Cl	1.158314	-1.220050	-0.889081
Cl82	Cl	1.658314	-0.720050	-0.389081
Cl83	Cl	1.426059	-1.142028	-0.681913
Cl84	Cl	1.926059	-0.642028	-0.181913
H85	H	1.389932	-0.710199	-1.165823
H86	H	1.889932	-0.210199	-0.665823
Cl87	Cl	1.204384	-0.853792	-1.393827
Cl88	Cl	1.704384	-0.353792	-0.893827
H89	H	1.436059	-0.674475	-1.338985
H90	H	1.936059	-0.174475	-0.838985
H91	H	0.717707	-0.889135	-0.888428
H92	H	1.217707	-0.389135	-0.388428
Cl93	Cl	0.714974	-0.657330	-0.657170
Cl94	Cl	1.214974	-0.157330	-0.157170
