data_functionalizedCrystal
_audit_creation_method	'MofGen! by Chris Wilmer'
_symmetry_space_group_name_H-M	'P1'
_symmetry_Int_Tables_number	1
_symmetry_cell_setting	triclinic
loop_
_symmetry_equiv_pos_as_xyz
  x,y,z
_cell_length_a	17.077404
_cell_length_b	19.805405
_cell_length_c	17.077396
_cell_angle_alpha	89.970202
_cell_angle_beta	89.983895
_cell_angle_gamma	90.024696
loop_
_atom_site_label
_atom_site_type_symbol
_atom_site_fract_x
_atom_site_fract_y
_atom_site_fract_z
Zn1	Zn	1.200016	-0.269494	-0.443816
Zn2	Zn	1.450016	-0.019494	-0.193816
Zn3	Zn	1.700016	0.230506	0.056184
Zn4	Zn	1.950016	0.480506	0.306184
Zn5	Zn	1.199920	-0.382689	-0.312549
Zn6	Zn	1.449920	-0.132689	-0.062549
Zn7	Zn	1.699920	0.117311	0.187451
Zn8	Zn	1.949920	0.367311	0.437451
Zn9	Zn	1.068753	-0.269515	-0.312567
Zn10	Zn	1.318753	-0.019515	-0.062567
Zn11	Zn	1.568753	0.230485	0.187433
Zn12	Zn	1.818753	0.480485	0.437433
Zn13	Zn	1.068707	-0.382643	-0.443775
Zn14	Zn	1.318707	-0.132643	-0.193775
Zn15	Zn	1.568707	0.117357	0.056225
Zn16	Zn	1.818707	0.367357	0.306225
O17	O	1.134349	-0.326085	-0.378177
O18	O	1.384349	-0.076085	-0.128177
O19	O	1.634349	0.173915	0.121823
O20	O	1.884349	0.423915	0.371823
O21	O	1.309850	-0.284520	-0.426413
O22	O	1.559850	-0.034520	-0.176413
O23	O	1.809850	0.215480	0.073587
O24	O	2.059850	0.465480	0.323587
O25	O	1.182499	-0.367704	-0.202704
O26	O	1.432499	-0.117704	0.047296
O27	O	1.682499	0.132296	0.297296
O28	O	1.932499	0.382296	0.547296
O29	O	1.086225	-0.174796	-0.330002
O30	O	1.336225	0.075204	-0.080002
O31	O	1.586225	0.325204	0.169998
O32	O	1.836225	0.575204	0.419998
O33	O	1.309779	-0.367684	-0.329972
O34	O	1.559779	-0.117684	-0.079972
O35	O	1.809779	0.132316	0.170028
O36	O	2.059779	0.382316	0.420028
O37	O	1.182664	-0.174780	-0.426430
O38	O	1.432664	0.075220	-0.176430
O39	O	1.682664	0.325220	0.073570
O40	O	1.932664	0.575220	0.323570
O41	O	1.086132	-0.284556	-0.202717
O42	O	1.336132	-0.034556	0.047283
O43	O	1.586132	0.215444	0.297283
O44	O	1.836132	0.465444	0.547283
O45	O	0.958900	-0.284511	-0.329962
O46	O	1.208900	-0.034511	-0.079962
O47	O	1.458900	0.215489	0.170038
O48	O	1.708900	0.465489	0.420038
O49	O	1.086147	-0.367605	-0.553628
O50	O	1.336147	-0.117605	-0.303628
O51	O	1.586147	0.132395	-0.053628
O52	O	1.836147	0.382395	0.196372
O53	O	0.958866	-0.367625	-0.426360
O54	O	1.208866	-0.117625	-0.176360
O55	O	1.458866	0.132375	0.073640
O56	O	1.708866	0.382375	0.323640
O57	O	1.182619	-0.284476	-0.553658
O58	O	1.432619	-0.034476	-0.303658
O59	O	1.682619	0.215524	-0.053658
O60	O	1.932619	0.465524	0.196342
O61	O	1.182454	-0.477399	-0.329932
O62	O	1.432454	-0.227399	-0.079932
O63	O	1.682454	0.022601	0.170068
O64	O	1.932454	0.272601	0.420068
O65	O	1.086053	-0.477365	-0.426343
O66	O	1.336053	-0.227365	-0.176343
O67	O	1.586053	0.022635	0.073657
O68	O	1.836053	0.272635	0.323657
C69	C	0.930401	-0.326066	-0.378159
C70	C	1.180401	-0.076066	-0.128159
C71	C	1.430401	0.173934	0.121841
C72	C	1.680401	0.423934	0.371841
C73	C	0.843151	-0.326074	-0.378170
C74	C	1.093151	-0.076074	-0.128170
C75	C	1.343151	0.173926	0.121830
C76	C	1.593151	0.423926	0.371830
C77	C	0.802199	-0.282848	-0.428464
C78	C	1.052199	-0.032848	-0.178464
C79	C	1.302199	0.217152	0.071536
C80	C	1.552199	0.467152	0.321536
C81	C	0.720218	-0.282852	-0.428468
C82	C	0.970218	-0.032852	-0.178468
C83	C	1.220218	0.217148	0.071532
C84	C	1.470218	0.467148	0.321532
C85	C	0.679192	-0.326087	-0.378181
C86	C	0.929192	-0.076087	-0.128181
C87	C	1.179192	0.173913	0.121819
C88	C	1.429192	0.423913	0.371819
C89	C	0.720150	-0.369315	-0.327882
C90	C	0.970150	-0.119315	-0.077882
C91	C	1.220150	0.130685	0.172118
C92	C	1.470150	0.380685	0.422118
C93	C	0.802129	-0.369307	-0.327875
C94	C	1.052129	-0.119307	-0.077875
C95	C	1.302129	0.130693	0.172125
C96	C	1.552129	0.380693	0.422125
C97	C	0.549280	-0.369330	-0.327901
C98	C	0.799280	-0.119330	-0.077901
C99	C	1.049280	0.130670	0.172099
C100	C	1.299280	0.380670	0.422099
C101	C	0.467296	-0.369340	-0.327909
C102	C	0.717296	-0.119340	-0.077909
C103	C	0.967296	0.130660	0.172091
C104	C	1.217296	0.380660	0.422091
C105	C	0.467369	-0.282876	-0.428494
C106	C	0.717369	-0.032876	-0.178494
C107	C	0.967369	0.217124	0.071506
C108	C	1.217369	0.467124	0.321506
C109	C	0.549348	-0.282868	-0.428487
C110	C	0.799348	-0.032868	-0.178487
C111	C	1.049348	0.217132	0.071513
C112	C	1.299348	0.467132	0.321513
C113	C	0.590301	-0.326097	-0.378189
C114	C	0.840301	-0.076097	-0.128189
C115	C	1.090301	0.173903	0.121811
C116	C	1.340301	0.423903	0.371811
C117	C	1.134260	-0.501941	-0.378148
C118	C	1.384260	-0.251941	-0.128148
C119	C	1.634260	-0.001941	0.121852
C120	C	1.884260	0.248059	0.371852
C121	C	1.134293	-0.577173	-0.378163
C122	C	1.384293	-0.327173	-0.128163
C123	C	1.634293	-0.077173	0.121837
C124	C	1.884293	0.172827	0.371837
C125	C	1.184479	-0.612451	-0.428412
C126	C	1.434479	-0.362451	-0.178412
C127	C	1.684479	-0.112451	0.071588
C128	C	1.934479	0.137549	0.321588
C129	C	1.184507	-0.683140	-0.428427
C130	C	1.434507	-0.433140	-0.178427
C131	C	1.684507	-0.183140	0.071573
C132	C	1.934507	0.066860	0.321573
C133	C	1.134353	-0.718549	-0.378187
C134	C	1.384353	-0.468549	-0.128187
C135	C	1.634353	-0.218549	0.121813
C136	C	1.884353	0.031451	0.371813
C137	C	1.084162	-0.683266	-0.327935
C138	C	1.334162	-0.433266	-0.077935
C139	C	1.584162	-0.183266	0.172065
C140	C	1.834162	0.066734	0.422065
C141	C	1.084130	-0.612579	-0.327925
C142	C	1.334130	-0.362579	-0.077925
C143	C	1.584130	-0.112579	0.172075
C144	C	1.834130	0.137421	0.422075
C145	C	1.084288	-0.968339	-0.327976
C146	C	1.334288	-0.718339	-0.077976
C147	C	1.584288	-0.468339	0.172024
C148	C	1.834288	-0.218339	0.422024
C149	C	1.084325	-1.039031	-0.327988
C150	C	1.334325	-0.789031	-0.077988
C151	C	1.584325	-0.539031	0.172012
C152	C	1.834325	-0.289031	0.422012
C153	C	1.184665	-1.038900	-0.428477
C154	C	1.434665	-0.788900	-0.178477
C155	C	1.684665	-0.538900	0.071523
C156	C	1.934665	-0.288900	0.321523
C157	C	1.184633	-0.968213	-0.428467
C158	C	1.434633	-0.718213	-0.178467
C159	C	1.684633	-0.468213	0.071533
C160	C	1.934633	-0.218213	0.321533
C161	C	1.134439	-0.932936	-0.378218
C162	C	1.384439	-0.682936	-0.128218
C163	C	1.634439	-0.432936	0.121782
C164	C	1.884439	-0.182936	0.371782
C165	C	1.134408	-0.856288	-0.378204
C166	C	1.384408	-0.606288	-0.128204
C167	C	1.634408	-0.356288	0.121796
C168	C	1.884408	-0.106288	0.371796
C169	C	1.134388	-0.795196	-0.378197
C170	C	1.384388	-0.545196	-0.128197
C171	C	1.634388	-0.295196	0.121803
C172	C	1.884388	-0.045196	0.371803
C173	C	1.339093	-0.326105	-0.378195
C174	C	1.589093	-0.076105	-0.128195
C175	C	1.839093	0.173895	0.121805
C176	C	2.089093	0.423895	0.371805
C177	C	1.426343	-0.326113	-0.378203
C178	C	1.676343	-0.076113	-0.128203
C179	C	1.926343	0.173887	0.121797
C180	C	2.176343	0.423887	0.371797
C181	C	1.134388	-0.326033	-0.582921
C182	C	1.384388	-0.076033	-0.332921
C183	C	1.634388	0.173967	-0.082921
C184	C	1.884388	0.423967	0.167079
C185	C	1.134405	-0.326010	-0.670171
C186	C	1.384405	-0.076010	-0.420171
C187	C	1.634405	0.173990	-0.170171
C188	C	1.884405	0.423990	0.079829
C189	C	1.134460	-0.149543	-0.378223
C190	C	1.384460	0.100457	-0.128223
C191	C	1.634460	0.350457	0.121777
C192	C	1.884460	0.600457	0.371777
C193	C	1.134508	-0.074311	-0.378242
C194	C	1.384508	0.175689	-0.128242
C195	C	1.634508	0.425689	0.121758
C196	C	1.884508	0.675689	0.371758
C197	C	1.084242	-0.282710	-0.711167
C198	C	1.334242	-0.032710	-0.461167
C199	C	1.584242	0.217290	-0.211167
C200	C	1.834242	0.467290	0.038833
C201	C	1.084255	-0.282695	-0.793148
C202	C	1.334255	-0.032695	-0.543148
C203	C	1.584255	0.217305	-0.293148
C204	C	1.834255	0.467305	-0.043148
C205	C	1.134435	-0.325977	-0.834131
C206	C	1.384435	-0.075977	-0.584131
C207	C	1.634435	0.174023	-0.334131
C208	C	1.884435	0.424023	-0.084131
C209	C	1.184601	-0.369282	-0.793128
C210	C	1.434601	-0.119282	-0.543128
C211	C	1.684601	0.130718	-0.293128
C212	C	1.934601	0.380718	-0.043128
C213	C	1.184584	-0.369300	-0.711149
C214	C	1.434584	-0.119300	-0.461149
C215	C	1.684584	0.130700	-0.211149
C216	C	1.934584	0.380700	0.038851
C217	C	1.184635	-0.369240	-0.963999
C218	C	1.434635	-0.119240	-0.713999
C219	C	1.684635	0.130760	-0.463999
C220	C	1.934635	0.380760	-0.213999
C221	C	1.184653	-0.369221	-1.045983
C222	C	1.434653	-0.119221	-0.795983
C223	C	1.684653	0.130779	-0.545983
C224	C	1.934653	0.380779	-0.295983
C225	C	1.084306	-0.282634	-1.045997
C226	C	1.334306	-0.032634	-0.795997
C227	C	1.584306	0.217366	-0.545997
C228	C	1.834306	0.467366	-0.295997
C229	C	1.084289	-0.282652	-0.964018
C230	C	1.334289	-0.032652	-0.714018
C231	C	1.584289	0.217348	-0.464018
C232	C	1.834289	0.467348	-0.214018
C233	C	1.134456	-0.325957	-0.923022
C234	C	1.384456	-0.075957	-0.673022
C235	C	1.634456	0.174043	-0.423022
C236	C	1.884456	0.424043	-0.173022
C237	C	1.134355	-0.326089	-0.174229
C238	C	1.384355	-0.076089	0.075771
C239	C	1.634355	0.173911	0.325771
C240	C	1.884355	0.423911	0.575771
C241	C	1.134490	-0.325920	-0.086980
C242	C	1.384490	-0.075920	0.163020
C243	C	1.634490	0.174080	0.413020
C244	C	1.884490	0.424080	0.663020
H245	H	0.686879	-0.247654	-0.469423
H246	H	0.936879	0.002346	-0.219423
H247	H	1.186879	0.252346	0.030577
H248	H	1.436879	0.502346	0.280577
H249	H	1.043322	-0.712102	-0.287033
H250	H	1.293322	-0.462102	-0.037033
H251	H	1.543322	-0.212102	0.212967
H252	H	1.793322	0.037898	0.462967
F253	F	1.238025	-0.415333	-0.920369
F254	F	1.488025	-0.165333	-0.670369
F255	F	1.738025	0.084667	-0.420369
F256	F	1.988025	0.334667	-0.170369
H257	H	1.043384	-0.247461	-0.677805
H258	H	1.293384	0.002539	-0.427805
H259	H	1.543384	0.252539	-0.177805
H260	H	1.793384	0.502539	0.072195
F261	F	1.030941	-1.076715	-0.274514
F262	F	1.280941	-0.826715	-0.024514
F263	F	1.530941	-0.576715	0.225486
F264	F	1.780941	-0.326715	0.475486
F265	F	1.030861	-0.930804	-0.274502
F266	F	1.280861	-0.680804	-0.024502
F267	F	1.530861	-0.430804	0.225498
F268	F	1.780861	-0.180804	0.475498
F269	F	1.238002	-0.415351	-0.836747
F270	F	1.488002	-0.165351	-0.586747
F271	F	1.738002	0.084649	-0.336747
F272	F	1.988002	0.334649	-0.086747
F273	F	1.030715	-0.575034	-0.274444
F274	F	1.280715	-0.325034	-0.024444
F275	F	1.530715	-0.075034	0.225556
F276	F	1.780715	0.174966	0.475556
H277	H	0.582750	-0.247666	-0.469440
H278	H	0.832750	0.002334	-0.219440
H279	H	1.082750	0.252334	0.030560
H280	H	1.332750	0.502334	0.280560
F281	F	0.592863	-0.415343	-0.274371
F282	F	0.842863	-0.165343	-0.024371
F283	F	1.092863	0.084657	0.225629
F284	F	1.342863	0.334657	0.475629
F285	F	1.030835	-0.236633	-0.836776
F286	F	1.280835	0.013367	-0.586776
F287	F	1.530835	0.263367	-0.336776
F288	F	1.780835	0.513367	-0.086776
H289	H	1.225533	-1.067631	-0.469395
H290	H	1.475533	-0.817631	-0.219395
H291	H	1.725533	-0.567631	0.030605
H292	H	1.975533	-0.317631	0.280605
F293	F	1.030886	-0.236582	-0.920403
F294	F	1.280886	0.013418	-0.670403
F295	F	1.530886	0.263418	-0.420403
F296	F	1.780886	0.513418	-0.170403
H297	H	0.434022	-0.247676	-0.469447
H298	H	0.684022	0.002324	-0.219447
H299	H	0.934022	0.252324	0.030553
H300	H	1.184022	0.502324	0.280553
H301	H	1.043460	-0.247373	-1.079380
H302	H	1.293460	0.002627	-0.829380
H303	H	1.543460	0.252627	-0.579380
H304	H	1.793460	0.502627	-0.329380
F305	F	0.423634	-0.415368	-0.274403
F306	F	0.673634	-0.165368	-0.024403
F307	F	0.923634	0.084632	0.225597
F308	F	1.173634	0.334632	0.475597
H309	H	1.225438	-0.404555	-0.677771
H310	H	1.475438	-0.154555	-0.427771
H311	H	1.725438	0.095445	-0.177771
H312	H	1.975438	0.345445	0.072229
H313	H	1.225515	-0.404465	-1.079349
H314	H	1.475515	-0.154465	-0.829349
H315	H	1.725515	0.095535	-0.579349
H316	H	1.975515	0.345535	-0.329349
H317	H	0.686740	-0.404514	-0.286934
H318	H	0.936740	-0.154514	-0.036934
H319	H	1.186740	0.095486	0.213066
H320	H	1.436740	0.345486	0.463066
F321	F	0.845855	-0.236834	-0.481991
F322	F	1.095855	0.013166	-0.231991
F323	F	1.345855	0.263166	0.018009
F324	F	1.595855	0.513166	0.268009
F325	F	0.845713	-0.415315	-0.274346
F326	F	1.095713	-0.165315	-0.024346
F327	F	1.345713	0.084685	0.225654
F328	F	1.595713	0.334685	0.475654
H329	H	1.225323	-0.583626	-0.469320
H330	H	1.475323	-0.333626	-0.219320
H331	H	1.725323	-0.083626	0.030680
H332	H	1.975323	0.166374	0.280680
H333	H	1.225380	-0.711860	-0.469339
H334	H	1.475380	-0.461860	-0.219339
H335	H	1.725380	-0.211860	0.030661
H336	H	1.975380	0.038140	0.280661
F337	F	1.238016	-0.930532	-0.481936
F338	F	1.488016	-0.680532	-0.231936
F339	F	1.738016	-0.430532	0.018064
F340	F	1.988016	-0.180532	0.268064
