data_functionalizedCrystal
_audit_creation_method	'MofGen! by Chris Wilmer'
_symmetry_space_group_name_H-M	'P1'
_symmetry_Int_Tables_number	1
_symmetry_cell_setting	triclinic
loop_
_symmetry_equiv_pos_as_xyz
  x,y,z
_cell_length_a	12.759401
_cell_length_b	15.299816
_cell_length_c	12.759393
_cell_angle_alpha	80.349878
_cell_angle_beta	90.019684
_cell_angle_gamma	80.349644
loop_
_atom_site_label
_atom_site_type_symbol
_atom_site_fract_x
_atom_site_fract_y
_atom_site_fract_z
Zn1	Zn	1.678549	-0.359024	0.666436
Zn2	Zn	2.178549	0.140976	1.166436
Zn3	Zn	1.708818	-0.509867	0.521184
Zn4	Zn	2.208818	-0.009867	1.021184
Zn5	Zn	1.502860	-0.359068	0.490781
Zn6	Zn	2.002860	0.140932	0.990781
Zn7	Zn	1.533199	-0.509795	0.696807
Zn8	Zn	2.033199	-0.009795	1.196807
O9	O	1.605856	-0.434439	0.593802
O10	O	2.105856	0.065561	1.093802
O11	O	1.829588	-0.379045	0.647182
O12	O	2.329588	0.120955	1.147182
O13	O	1.681467	-0.489912	0.370140
O14	O	2.181467	0.010088	0.870140
O15	O	1.500801	-0.232854	0.488648
O16	O	2.000801	0.267146	0.988648
O17	O	1.851826	-0.489869	0.540466
O18	O	2.351826	0.010131	1.040466
O19	O	1.629879	-0.232821	0.617701
O20	O	2.129879	0.267179	1.117701
O21	O	1.530151	-0.379121	0.347803
O22	O	2.030151	0.120879	0.847803
O23	O	1.359861	-0.379051	0.518097
O24	O	1.859861	0.120949	1.018097
O25	O	1.552510	-0.489746	0.839790
O26	O	2.052510	0.010254	1.339790
O27	O	1.382151	-0.489789	0.669464
O28	O	1.882151	0.010211	1.169464
O29	O	1.659298	-0.378975	0.817476
O30	O	2.159298	0.121025	1.317476
O31	O	1.710886	-0.636066	0.569915
O32	O	2.210886	-0.136066	1.069915
O33	O	1.581860	-0.636013	0.698945
O34	O	2.081860	-0.136013	1.198945
C35	C	1.332885	-0.434418	0.593778
C36	C	1.832885	0.065582	1.093778
C37	C	1.216111	-0.434431	0.593797
C38	C	1.716111	0.065569	1.093797
C39	C	1.149596	-0.376693	0.515089
C40	C	1.649596	0.123307	1.015089
C41	C	1.039876	-0.376714	0.515106
C42	C	1.539876	0.123286	1.015106
C43	C	1.063196	-0.492213	0.672550
C44	C	1.563196	0.007787	1.172550
C45	C	1.172915	-0.492196	0.672527
C46	C	1.672915	0.007804	1.172527
C47	C	1.192792	-0.318928	0.436358
C48	C	1.692792	0.181072	0.936358
C49	C	1.126277	-0.261185	0.357644
C50	C	1.626277	0.238815	0.857644
C51	C	1.016557	-0.261206	0.357662
C52	C	1.516557	0.238794	0.857662
C53	C	0.973353	-0.318971	0.436394
C54	C	1.473353	0.181029	0.936394
C55	C	1.652978	-0.668764	0.641048
C56	C	2.152978	-0.168764	1.141048
C57	C	1.673233	-0.769010	0.661295
C58	C	2.173233	-0.269010	1.161295
C59	C	1.461780	-1.051952	0.449450
C60	C	1.961780	-0.551952	0.949450
C61	C	1.442744	-0.957766	0.430430
C62	C	1.942744	-0.457766	0.930430
C63	C	1.500365	-0.910572	0.488144
C64	C	2.000365	-0.410572	0.988144
C65	C	1.577024	-0.957573	0.564883
C66	C	2.077024	-0.457573	1.064883
C67	C	1.596056	-1.051768	0.583911
C68	C	2.096056	-0.551768	1.083911
C69	C	1.634641	-0.910389	0.622605
C70	C	2.134641	-0.410389	1.122605
C71	C	1.711301	-0.957390	0.699344
C72	C	2.211301	-0.457390	1.199344
C73	C	1.730330	-1.051575	0.718368
C74	C	2.230330	-0.551575	1.218368
C75	C	1.672709	-1.098769	0.660654
C76	C	2.172709	-0.598769	1.160654
C77	C	1.615609	-0.816194	0.603577
C78	C	2.115609	-0.316194	1.103577
C79	C	1.749886	-0.816011	0.738037
C80	C	2.249886	-0.316011	1.238037
C81	C	1.768922	-0.910196	0.757058
C82	C	2.268922	-0.410196	1.257058
C83	C	1.879894	-0.434460	0.593827
C84	C	2.379894	0.065540	1.093827
C85	C	1.996673	-0.434469	0.593838
C86	C	2.496673	0.065531	1.093838
C87	C	1.605912	-0.434348	0.867817
C88	C	2.105912	0.065652	1.367817
C89	C	1.605935	-0.434309	0.984586
C90	C	2.105935	0.065691	1.484586
C91	C	1.558579	-0.199198	0.546395
C92	C	2.058579	0.300802	1.046395
C93	C	1.538433	-0.098953	0.526193
C94	C	2.038433	0.401047	1.026193
C95	C	1.605849	-0.434464	0.320840
C96	C	2.105849	0.065536	0.820840
C97	C	1.605978	-0.434249	0.204020
C98	C	2.105978	0.065751	0.704020
C99	C	1.661548	-0.376625	1.027830
C100	C	2.161548	0.123375	1.527830
C101	C	1.661566	-0.376592	1.137548
C102	C	2.161566	0.123408	1.637548
C103	C	1.550358	-0.491936	1.160769
C104	C	2.050358	0.008064	1.660769
C105	C	1.550334	-0.491963	1.051053
C106	C	2.050334	0.008037	1.551053
C107	C	1.717149	-0.318971	0.961364
C108	C	2.217149	0.181029	1.461364
C109	C	1.772767	-0.261283	1.004607
C110	C	2.272767	0.238717	1.504607
C111	C	1.772785	-0.261250	1.114324
C112	C	2.272785	0.238750	1.614324
C113	C	1.717186	-0.318906	1.180799
C114	C	2.217186	0.181094	1.680799
H115	H	1.227073	-0.539210	0.736620
H116	H	1.727073	-0.039210	1.236620
H117	H	1.553192	-0.777934	0.541095
H118	H	2.053192	-0.277934	1.041095
H119	H	0.884011	-0.318988	0.436398
H120	H	1.384011	0.181012	0.936398
H121	H	1.717191	-0.318864	1.270135
H122	H	2.217191	0.181136	1.770135
H123	H	1.161462	-0.214161	0.293539
H124	H	1.661462	0.285839	0.793539
H125	H	0.962403	-0.214195	0.293563
H126	H	1.462403	0.285805	0.793563
H127	H	1.717143	-0.318993	0.872025
H128	H	2.217143	0.181007	1.372025
F129	F	1.491193	-0.553294	1.231519
F130	F	1.991193	-0.053294	1.731519
F131	F	1.400451	-1.102183	0.388049
F132	F	1.900451	-0.602183	0.888049
H133	H	1.792747	-1.089841	0.780858
H134	H	2.292747	-0.589841	1.280858
F135	F	1.479813	-0.810332	0.468188
F136	F	1.979813	-0.310332	0.968188
F137	F	1.850506	-0.960229	0.838728
F138	F	2.350506	-0.460229	1.338728
H139	H	1.380327	-0.919501	0.367951
H140	H	1.880327	-0.419501	0.867951
H141	H	1.688208	-1.175463	0.676132
H142	H	2.188208	-0.675463	1.176132
H143	H	1.818026	-0.214336	0.950476
H144	H	2.318026	0.285664	1.450476
H145	H	1.796804	-0.777586	0.785036
H146	H	2.296804	-0.277586	1.285036
H147	H	1.028010	-0.539241	0.736651
H148	H	1.528010	-0.039241	1.236651
H149	H	1.818063	-0.214271	1.149528
H150	H	2.318063	0.285729	1.649528
H151	H	1.505031	-0.538920	1.015841
H152	H	2.005031	-0.038920	1.515841
H153	H	1.282130	-0.318902	0.436337
H154	H	1.782130	0.181098	0.936337
