data_functionalizedCrystal
_audit_creation_method	'MofGen! by Chris Wilmer'
_symmetry_space_group_name_H-M	'P1'
_symmetry_Int_Tables_number	1
_symmetry_cell_setting	triclinic
loop_
_symmetry_equiv_pos_as_xyz
  x,y,z
_cell_length_a	10.686220
_cell_length_b	12.759400
_cell_length_c	10.685880
_cell_angle_alpha	94.339195
_cell_angle_beta	89.641569
_cell_angle_gamma	94.396325
loop_
_atom_site_label
_atom_site_type_symbol
_atom_site_fract_x
_atom_site_fract_y
_atom_site_fract_z
Zn1	Zn	1.972257	-0.327959	-0.562370
Zn2	Zn	1.956041	-0.491331	-0.352617
Zn3	Zn	1.746387	-0.330100	-0.368693
Zn4	Zn	1.762459	-0.518036	-0.578389
O5	O	1.859286	-0.416857	-0.465517
O6	O	2.145649	-0.337559	-0.521115
O7	O	1.914717	-0.459664	-0.179208
O8	O	1.776410	-0.182793	-0.394409
O9	O	2.133735	-0.457588	-0.367010
O10	O	1.942356	-0.181220	-0.536703
O11	O	1.760685	-0.341208	-0.191019
O12	O	1.572976	-0.367102	-0.409941
O13	O	1.803801	-0.503101	-0.751805
O14	O	1.584784	-0.505178	-0.564003
O15	O	1.957940	-0.363453	-0.740036
O16	O	1.930301	-0.641897	-0.382542
O17	O	1.788077	-0.661517	-0.548415
C18	C	1.533364	-0.439271	-0.490456
C19	C	1.393935	-0.448887	-0.501154
C20	C	1.859210	-0.689828	-0.465497
C21	C	1.859295	-0.806600	-0.465521
C22	C	1.933447	-0.851211	-0.379233
C23	C	1.933527	-0.960931	-0.379265
C24	C	1.785292	-0.981423	-0.551880
C25	C	1.785220	-0.871704	-0.551852
C26	C	2.007522	-0.786107	-0.292902
C27	C	2.081678	-0.830716	-0.206606
C28	C	2.081758	-0.940437	-0.206639
C29	C	2.007682	-1.005549	-0.292968
C30	C	2.186481	-0.394356	-0.440482
C31	C	2.325912	-0.384767	-0.429814
C32	C	1.884472	-0.436017	-0.792709
C33	C	1.895205	-0.444182	-0.932139
C34	C	1.859399	-0.142819	-0.465563
C35	C	1.859447	-0.026040	-0.465582
C36	C	1.834270	-0.397690	-0.139593
C37	C	1.823780	-0.389212	-0.000145
H38	H	1.345500	-0.511149	-0.570414
H39	H	1.724981	-1.034445	-0.622164
H40	H	1.374340	-0.322515	-0.360550
C41	C	2.007441	-0.665417	-0.292866
H42	H	2.062183	-0.633031	-0.229101
H43	H	1.924815	-0.644957	-0.277305
H44	H	2.035301	-0.643806	-0.372175
H45	H	1.964576	-0.497497	-0.980589
C46	C	1.730070	-0.317192	-0.934710
H47	H	1.734907	-0.320961	-0.846439
H48	H	1.647409	-0.339600	-0.962574
H49	H	1.750100	-0.246573	-0.954727
C50	C	2.163151	-0.759100	-0.111648
H51	H	2.152475	-0.687365	-0.123976
H52	H	2.248855	-0.772289	-0.123621
H53	H	2.138366	-0.773454	-0.028754
H54	H	2.142150	-0.976755	-0.136380
H55	H	2.007763	-1.094890	-0.292997
C56	C	1.703661	-0.822628	-0.646772
H57	H	1.659545	-0.877114	-0.698182
H58	H	1.755796	-0.779681	-0.697780
H59	H	1.645310	-0.780824	-0.602911
