data_functionalizedCrystal
_audit_creation_method	'MofGen! by Chris Wilmer'
_symmetry_space_group_name_H-M	'P1'
_symmetry_Int_Tables_number	1
_symmetry_cell_setting	triclinic
loop_
_symmetry_equiv_pos_as_xyz
  x,y,z
_cell_length_a	12.759401
_cell_length_b	13.032721
_cell_length_c	13.034356
_cell_angle_alpha	89.133493
_cell_angle_beta	97.201094
_cell_angle_gamma	97.205831
loop_
_atom_site_label
_atom_site_type_symbol
_atom_site_fract_x
_atom_site_fract_y
_atom_site_fract_z
Zn1	Zn	1.644300	-0.335483	0.633444
Zn2	Zn	2.144300	0.164517	1.133444
Zn3	Zn	1.600243	-0.529334	0.483304
Zn4	Zn	2.100243	-0.029334	0.983304
Zn5	Zn	1.443838	-0.357380	0.461493
Zn6	Zn	1.943838	0.142620	0.961493
Zn7	Zn	1.449400	-0.507423	0.655226
Zn8	Zn	1.949400	-0.007423	1.155226
O9	O	1.534445	-0.432405	0.558367
O10	O	2.034445	0.067595	1.058367
O11	O	1.785477	-0.361203	0.613540
O12	O	2.285477	0.138797	1.113540
O13	O	1.558729	-0.524858	0.336498
O14	O	2.058729	-0.024858	0.836498
O15	O	1.486540	-0.210555	0.466059
O16	O	1.986540	0.289445	0.966059
O17	O	1.753109	-0.503625	0.503232
O18	O	2.253109	-0.003625	1.003232
O19	O	1.633819	-0.194467	0.592390
O20	O	2.133819	0.305533	1.092390
O21	O	1.443820	-0.398524	0.320474
O22	O	1.943820	0.101476	0.820474
O23	O	1.297554	-0.377278	0.487180
O24	O	1.797554	0.122722	0.987180
O25	O	1.496020	-0.466280	0.796248
O26	O	1.996020	0.033720	1.296248
O27	O	1.301641	-0.487513	0.629514
O28	O	1.801641	0.012487	1.129514
O29	O	1.639212	-0.339957	0.780245
O30	O	2.139212	0.160043	1.280245
O31	O	1.564123	-0.670348	0.524353
O32	O	2.064123	-0.170348	1.024353
O33	O	1.453300	-0.654250	0.650664
O34	O	1.953300	-0.154250	1.150664
C35	C	1.261476	-0.432395	0.558345
C36	C	1.761476	0.067605	1.058345
C37	C	1.144700	-0.432412	0.558363
C38	C	1.644700	0.067588	1.058363
C39	C	1.091967	-0.489925	0.632386
C40	C	1.591967	0.010075	1.132386
C41	C	0.982246	-0.489926	0.632406
C42	C	1.482246	0.010074	1.132406
C43	C	0.977998	-0.374900	0.484372
C44	C	1.477998	0.125100	0.984372
C45	C	1.087719	-0.374894	0.484357
C46	C	1.587719	0.125106	0.984357
C47	C	0.845686	-0.511428	0.758337
C48	C	1.345686	-0.011428	1.258337
C49	C	0.792947	-0.568958	0.832353
C50	C	1.292947	-0.068958	1.332353
C51	C	0.819593	-0.667341	0.860704
C52	C	1.319593	-0.167341	1.360704
C53	C	0.898973	-0.708217	0.815027
C54	C	1.398973	-0.208217	1.315027
C55	C	0.951705	-0.650694	0.741004
C56	C	1.451705	-0.150694	1.241004
C57	C	0.925064	-0.552293	0.712671
C58	C	1.425064	-0.052293	1.212671
C59	C	1.224279	-0.353403	0.358426
C60	C	1.724279	0.146597	0.858426
C61	C	1.277012	-0.295885	0.284397
C62	C	1.777012	0.204115	0.784397
C63	C	1.250366	-0.197501	0.256036
C64	C	1.750366	0.302499	0.756036
C65	C	1.170980	-0.156631	0.301696
C66	C	1.670980	0.343369	0.801696
C67	C	1.118247	-0.214150	0.375724
C68	C	1.618247	0.285850	0.875724
C69	C	1.144901	-0.312532	0.404087
C70	C	1.644901	0.187468	0.904087
C71	C	1.504566	-0.699613	0.592261
C72	C	2.004566	-0.199613	1.092261
C73	C	1.491884	-0.813921	0.606796
C74	C	1.991884	-0.313921	1.106796
C75	C	1.541126	-0.872808	0.550827
C76	C	2.041126	-0.372808	1.050827
C77	C	1.528021	-0.990952	0.565848
C78	C	2.028021	-0.490952	1.065848
C79	C	1.808480	-0.432416	0.558389
C80	C	2.308480	0.067584	1.058389
C81	C	1.925257	-0.432420	0.558399
C82	C	2.425257	0.067580	1.058399
C83	C	1.573151	-0.398232	0.826605
C84	C	2.073151	0.101768	1.326605
C85	C	1.589645	-0.383669	0.940912
C86	C	2.089645	0.116331	1.440912
C87	C	1.564474	-0.164151	0.524362
C88	C	2.064474	0.335849	1.024362
C89	C	1.577270	-0.049837	0.509871
C90	C	2.077270	0.450163	1.009871
C91	C	1.495959	-0.466371	0.291162
C92	C	1.995959	0.033629	0.791162
C93	C	1.479701	-0.480643	0.176819
C94	C	1.979701	0.019357	0.676819
C95	C	1.543194	-0.424635	1.117936
C96	C	2.043194	0.075365	1.617936
C97	C	1.526143	-0.439686	0.999793
C98	C	2.026143	0.060314	1.499793
H99	H	0.920652	-0.788336	0.838109
H100	H	1.420652	-0.288336	1.338109
H101	H	1.412723	-0.539741	1.139766
H102	H	1.912723	-0.039741	1.639766
Cl103	Cl	1.657352	-0.992650	0.418718
Cl104	Cl	2.157352	-0.492650	0.918718
Cl105	Cl	1.163598	-0.562229	0.725425
Cl106	Cl	1.663598	-0.062229	1.225425
H107	H	1.440028	-0.850971	0.665838
H108	H	1.940028	-0.350971	1.165838
H109	H	1.476161	-1.027997	0.624894
H110	H	1.976161	-0.527997	1.124894
H111	H	1.656634	-0.324574	0.977959
H112	H	2.156634	0.175426	1.477959
H113	H	1.610178	-0.365545	1.154989
H114	H	2.110178	0.134455	1.654989
Cl115	Cl	1.422726	-0.530936	0.942601
Cl116	Cl	1.922726	-0.030936	1.442601
H117	H	0.931591	-0.328073	0.424118
H118	H	1.431591	0.171927	0.924118
H119	H	1.016334	-0.683974	0.703814
H120	H	1.516334	-0.183974	1.203814
Cl121	Cl	1.018441	-0.162772	0.433121
Cl122	Cl	1.518441	0.337228	0.933121
H123	H	0.776645	-0.714182	0.920971
H124	H	1.276645	-0.214182	1.420971
Cl125	Cl	0.693163	-0.517569	0.889778
Cl126	Cl	1.193163	-0.017569	1.389778
Cl127	Cl	1.137471	-0.032949	0.266035
Cl128	Cl	1.637471	0.467051	0.766035
Cl129	Cl	0.812196	-0.387731	0.722716
Cl130	Cl	1.312196	0.112269	1.222716
H131	H	1.293304	-0.150675	0.195748
H132	H	1.793304	0.349325	0.695748
Cl133	Cl	1.376800	-0.347274	0.226981
Cl134	Cl	1.876800	0.152726	0.726981
H135	H	1.245989	-0.433513	0.381522
H136	H	1.745989	0.066487	0.881522
Cl137	Cl	1.621206	-0.815614	0.459681
Cl138	Cl	2.121206	-0.315614	0.959681
