data_functionalizedCrystal
_audit_creation_method	'MofGen! by Chris Wilmer'
_symmetry_space_group_name_H-M	'P1'
_symmetry_Int_Tables_number	1
_symmetry_cell_setting	triclinic
loop_
_symmetry_equiv_pos_as_xyz
  x,y,z
_cell_length_a	12.759394
_cell_length_b	12.759401
_cell_length_c	12.759393
_cell_angle_alpha	90.018496
_cell_angle_beta	89.967655
_cell_angle_gamma	89.984886
loop_
_atom_site_label
_atom_site_type_symbol
_atom_site_fract_x
_atom_site_fract_y
_atom_site_fract_z
Zn1	Zn	-0.418196	-1.606254	-0.593977
Zn2	Zn	0.081804	-1.106254	-0.093977
Zn3	Zn	-0.593915	-1.606148	-0.418295
Zn4	Zn	-0.093915	-1.106148	0.081705
Zn5	Zn	-0.418252	-1.430556	-0.418316
Zn6	Zn	0.081748	-0.930556	0.081684
Zn7	Zn	-0.593835	-1.430544	-0.593936
Zn8	Zn	-0.093835	-0.930544	-0.093936
O9	O	-0.506050	-1.518376	-0.506131
O10	O	-0.006050	-1.018376	-0.006131
O11	O	-0.441516	-1.753261	-0.570681
O12	O	0.058484	-1.253261	-0.070681
O13	O	-0.570670	-1.582816	-0.271277
O14	O	-0.070670	-1.082816	0.228723
O15	O	-0.271223	-1.453912	-0.441644
O16	O	0.228777	-0.953912	0.058356
O17	O	-0.570616	-1.753183	-0.441608
O18	O	-0.070616	-1.253183	0.058392
O19	O	-0.271183	-1.582997	-0.570701
O20	O	0.228817	-1.082997	-0.070701
O21	O	-0.441611	-1.453809	-0.271293
O22	O	0.058389	-0.953809	0.228707
O23	O	-0.441533	-1.283533	-0.441605
O24	O	0.058467	-0.783533	0.058395
O25	O	-0.570479	-1.453892	-0.740963
O26	O	-0.070479	-0.953892	-0.240963
O27	O	-0.570533	-1.283525	-0.570632
O28	O	-0.070533	-0.783525	-0.070632
O29	O	-0.441438	-1.582985	-0.740993
O30	O	0.058562	-1.082985	-0.240993
O31	O	-0.740926	-1.582804	-0.441568
O32	O	-0.240926	-1.082804	0.058432
O33	O	-0.740866	-1.453789	-0.570611
O34	O	-0.240866	-0.953789	-0.070611
C35	C	-0.779017	-1.518312	-0.506106
C36	C	-0.279017	-1.018312	-0.006106
C37	C	-0.895794	-1.518382	-0.506130
C38	C	-0.395794	-1.018382	-0.006130
C39	C	-0.506031	-1.245408	-0.506117
C40	C	-0.006031	-0.745408	-0.006117
C41	C	-0.506048	-1.128632	-0.506136
C42	C	-0.006048	-0.628632	-0.006136
C43	C	-0.505943	-1.518449	-0.780165
C44	C	-0.005943	-1.018449	-0.280165
C45	C	-0.505898	-1.518480	-0.896942
C46	C	-0.005898	-1.018480	-0.396942
C47	C	-0.895802	-1.652826	-0.371858
C48	C	-0.395802	-1.152826	0.128142
C49	C	-0.950667	-1.720076	-0.304735
C50	C	-0.450667	-1.220076	0.195265
C51	C	-1.060389	-1.720137	-0.304763
C52	C	-0.560389	-1.220137	0.195237
C53	C	-1.115248	-1.652944	-0.371925
C54	C	-0.615248	-1.152944	0.128075
C55	C	-1.060383	-1.585695	-0.439048
C56	C	-0.560383	-1.085695	0.060952
C57	C	-0.950659	-1.585638	-0.439010
C58	C	-0.450659	-1.085638	0.060990
C59	C	-1.060374	-1.451257	-0.573324
C60	C	-0.560374	-0.951257	-0.073324
C61	C	-0.950653	-1.451188	-0.573292
C62	C	-0.450653	-0.951188	-0.073292
C63	C	-1.115234	-1.384064	-0.640485
C64	C	-0.615234	-0.884064	-0.140485
C65	C	-1.060369	-1.316807	-0.707605
C66	C	-0.560369	-0.816807	-0.207605
C67	C	-0.950640	-1.316748	-0.707573
C68	C	-0.450640	-0.816748	-0.207573
C69	C	-0.895788	-1.383939	-0.640415
C70	C	-0.395788	-0.883939	-0.140415
C71	C	-0.232016	-1.518467	-0.506180
C72	C	0.267984	-1.018467	-0.006180
C73	C	-0.115239	-1.518507	-0.506200
C74	C	0.384761	-1.018507	-0.006200
C75	C	-0.506069	-1.792409	-0.506146
C76	C	-0.006069	-1.292409	-0.006146
C77	C	-0.506078	-1.909185	-0.506153
C78	C	-0.006078	-1.409185	-0.006153
C79	C	-0.573336	-0.964061	-0.573222
C80	C	-0.073336	-0.464061	-0.073222
C81	C	-0.573325	-1.073785	-0.573211
C82	C	-0.073325	-0.573785	-0.073211
C83	C	-0.438786	-1.073748	-0.439060
C84	C	0.061214	-0.573748	0.060940
C85	C	-0.438804	-0.964026	-0.439066
C86	C	0.061196	-0.464026	0.060934
C87	C	-0.438685	-1.451331	-0.951811
C88	C	0.061315	-0.951331	-0.451811
C89	C	-0.438652	-1.451355	-1.061535
C90	C	0.061348	-0.951355	-0.561535
C91	C	-0.573050	-1.585688	-1.061510
C92	C	-0.073050	-1.085688	-0.561510
C93	C	-0.573087	-1.585657	-0.951788
C94	C	-0.073087	-1.085657	-0.451788
C95	C	-0.506080	-1.518363	-0.233164
C96	C	-0.006080	-1.018363	0.266836
C97	C	-0.505829	-1.518535	-0.116388
C98	C	-0.005829	-1.018535	0.383612
H99	H	-0.806461	-1.652769	-0.371815
H100	H	-0.306461	-1.152769	0.128185
H101	H	-0.384032	-0.919345	-0.384446
H102	H	0.115968	-0.419345	0.115554
H103	H	-0.905975	-1.261989	-0.762237
H104	H	-0.405975	-0.761989	-0.262237
C105	C	-0.364790	-1.377434	-0.891478
C106	C	0.135210	-0.877434	-0.391478
H107	H	-0.374429	-1.387038	-0.818272
H108	H	0.125571	-0.887038	-0.318272
H109	H	-0.380153	-1.306844	-0.909453
H110	H	0.119847	-0.806844	-0.409453
H111	H	-0.294191	-1.392847	-0.909479
H112	H	0.205809	-0.892847	-0.409479
H113	H	-0.383921	-1.396674	-1.106205
H114	H	0.116079	-0.896674	-0.606205
H115	H	-0.905991	-1.774786	-0.250054
H116	H	-0.405991	-1.274786	0.249946
H117	H	-0.628115	-0.919414	-0.627848
H118	H	-0.128115	-0.419414	-0.127848
H119	H	-0.627751	-1.640382	-1.106180
H120	H	-0.127751	-1.140382	-0.606180
H121	H	-0.627824	-1.640341	-0.907112
H122	H	-0.127824	-1.140341	-0.407112
H123	H	-1.105059	-1.774903	-0.250111
H124	H	-0.605059	-1.274903	0.249889
H125	H	-1.204589	-1.653010	-0.371951
H126	H	-0.704589	-1.153010	0.128049
H127	H	-1.204575	-1.384123	-0.640508
H128	H	-0.704575	-0.884123	-0.140508
H129	H	-0.806447	-1.383890	-0.640376
H130	H	-0.306447	-0.883890	-0.140376
C131	C	-1.120708	-1.242908	-0.781478
C132	C	-0.620708	-0.742908	-0.281478
H133	H	-1.072321	-1.202848	-0.821453
H134	H	-0.572321	-0.702848	-0.321453
H135	H	-1.163591	-1.197178	-0.741270
H136	H	-0.663591	-0.697178	-0.241270
H137	H	-1.163429	-1.283114	-0.827304
H138	H	-0.663429	-0.783114	-0.327304
C139	C	-0.647305	-1.134145	-0.646991
C140	C	-0.147305	-0.634145	-0.146991
H141	H	-0.687364	-1.085766	-0.686949
H142	H	-0.187364	-0.585766	-0.186949
H143	H	-0.693031	-1.176927	-0.606724
H144	H	-0.193031	-0.676927	-0.106724
H145	H	-0.607153	-1.176968	-0.692837
H146	H	-0.107153	-0.676968	-0.192837
C147	C	-0.364781	-1.134075	-0.365280
C148	C	0.135219	-0.634075	0.134720
H149	H	-0.374394	-1.207282	-0.374889
H150	H	0.125606	-0.707282	0.125111
H151	H	-0.380073	-1.116068	-0.294663
H152	H	0.119927	-0.616068	0.205337
H153	H	-0.294209	-1.116104	-0.380790
H154	H	0.205791	-0.616104	0.119210
