data_functionalizedCrystal
_audit_creation_method	'MofGen! by Chris Wilmer'
_symmetry_space_group_name_H-M	'P1'
_symmetry_Int_Tables_number	1
_symmetry_cell_setting	triclinic
loop_
_symmetry_equiv_pos_as_xyz
  x,y,z
_cell_length_a	12.827893
_cell_length_b	12.827892
_cell_length_c	12.827885
_cell_angle_alpha	89.970214
_cell_angle_beta	89.980728
_cell_angle_gamma	90.015362
loop_
_atom_site_label
_atom_site_type_symbol
_atom_site_fract_x
_atom_site_fract_y
_atom_site_fract_z
Zn1	Zn	1.597670	-0.415983	-0.590849
Zn2	Zn	2.097670	0.084017	-0.090849
Zn3	Zn	1.597564	-0.590761	-0.416109
Zn4	Zn	2.097564	-0.090761	0.083891
Zn5	Zn	1.422911	-0.416034	-0.416122
Zn6	Zn	1.922911	0.083966	0.083878
Zn7	Zn	1.422896	-0.590683	-0.590809
Zn8	Zn	1.922896	-0.090683	-0.090809
O9	O	1.510260	-0.503365	-0.503472
O10	O	2.010260	-0.003365	-0.003472
O11	O	1.743892	-0.439179	-0.567680
O12	O	2.243892	0.060821	-0.067680
O13	O	1.574357	-0.567637	-0.269875
O14	O	2.074357	-0.067637	0.230125
O15	O	1.446144	-0.269791	-0.439322
O16	O	1.946144	0.230209	0.060678
O17	O	1.743814	-0.567587	-0.439300
O18	O	2.243814	-0.067587	0.060700
O19	O	1.574538	-0.269754	-0.567693
O20	O	2.074538	0.230246	-0.067693
O21	O	1.446041	-0.439266	-0.269884
O22	O	1.946041	0.060734	0.230116
O23	O	1.276673	-0.439190	-0.439284
O24	O	1.776673	0.060810	0.060716
O25	O	1.446118	-0.567455	-0.737050
O26	O	1.946118	-0.067455	-0.237050
O27	O	1.276662	-0.567504	-0.567625
O28	O	1.776662	-0.067504	-0.067625
O29	O	1.574524	-0.439104	-0.737080
O30	O	2.074524	0.060896	-0.237080
O31	O	1.574343	-0.736986	-0.439261
O32	O	2.074343	-0.236986	0.060739
O33	O	1.446016	-0.736929	-0.567612
O34	O	1.946016	-0.236929	-0.067612
C35	C	1.238750	-0.503345	-0.503452
C36	C	1.738750	-0.003345	-0.003452
C37	C	1.122597	-0.503362	-0.503469
C38	C	1.622597	-0.003362	-0.003469
C39	C	0.950746	-0.439802	-0.440092
C40	C	1.450746	0.060198	0.059908
C41	C	1.070796	-0.439784	-0.440074
C42	C	1.570796	0.060216	0.059926
C43	C	1.510195	-0.774875	-0.503454
C44	C	2.010195	-0.274875	-0.003454
C45	C	1.510262	-0.891028	-0.503481
C46	C	2.010262	-0.391028	-0.003481
C47	C	1.573838	-0.942807	-0.440039
C48	C	2.073838	-0.442807	0.059961
C49	C	1.573910	-1.062857	-0.440066
C50	C	2.073910	-0.562857	0.059934
C51	C	1.782830	-0.503386	-0.503493
C52	C	2.282830	-0.003386	-0.003493
C53	C	1.898983	-0.503395	-0.503502
C54	C	2.398983	-0.003395	-0.003502
C55	C	1.510331	-0.503265	-0.776043
C56	C	2.010331	-0.003265	-0.276043
C57	C	1.510362	-0.503222	-0.892196
C58	C	2.010362	-0.003222	-0.392196
C59	C	1.510354	-0.230795	-0.503514
C60	C	2.010354	0.269205	-0.003514
C61	C	1.510394	-0.114642	-0.503531
C62	C	2.010394	0.385358	-0.003531
C63	C	1.573907	-0.439697	-0.943995
C64	C	2.073907	0.060303	-0.443995
C65	C	1.573940	-0.439652	-1.064045
C66	C	2.073940	0.060348	-0.564045
C67	C	1.510249	-0.503390	-0.231962
C68	C	2.010249	-0.003390	0.268038
C69	C	1.510422	-0.503138	-0.115810
C70	C	2.010422	-0.003138	0.384190
H71	H	0.906185	-0.385368	-0.385822
H72	H	1.406185	0.114632	0.114178
O73	O	1.069669	-0.568415	-0.568277
O74	O	1.569669	-0.068415	-0.068277
C75	C	1.141151	-0.627503	-0.627239
C76	C	1.641151	-0.127503	-0.127239
H77	H	1.218961	-0.631133	-0.584487
H78	H	1.718961	-0.131133	-0.084487
H79	H	1.109528	-0.709826	-0.638229
H80	H	1.609528	-0.209826	-0.138229
H81	H	1.152765	-0.589331	-0.706676
H82	H	1.652765	-0.089331	-0.206676
H83	H	1.455890	-0.935576	-0.557819
H84	H	1.955890	-0.435576	-0.057819
H85	H	1.628336	-1.107385	-0.385748
H86	H	2.128336	-0.607385	0.114252
O87	O	1.638808	-0.889834	-0.375177
O88	O	2.138808	-0.389834	0.124823
C89	C	1.697912	-0.961286	-0.316171
C90	C	2.197912	-0.461286	0.183829
H91	H	1.701629	-1.039082	-0.358925
H92	H	2.201629	-0.539082	0.141075
H93	H	1.780205	-0.929604	-0.305111
H94	H	2.280205	-0.429604	0.194889
H95	H	1.659698	-0.972949	-0.236766
H96	H	2.159698	-0.472949	0.263234
O97	O	1.445385	-0.568102	-0.945148
O98	O	1.945385	-0.068102	-0.445148
C99	C	1.386314	-0.627196	-0.873676
C100	C	1.886314	-0.127196	-0.373676
H101	H	1.382618	-0.584494	-0.795850
H102	H	1.882618	-0.084494	-0.295850
H103	H	1.304012	-0.638298	-0.905286
H104	H	1.804012	-0.138298	-0.405286
H105	H	1.424543	-0.706580	-0.862099
H106	H	1.924543	-0.206580	-0.362099
H107	H	1.456019	-0.557531	-1.071270
H108	H	1.956019	-0.057531	-0.571270
H109	H	1.115311	-0.385343	-0.385783
H110	H	1.615311	0.114657	0.114217
H111	H	0.943544	-0.557821	-0.557780
H112	H	1.443544	-0.057821	-0.057780
O113	O	1.638642	-0.374805	-0.890765
O114	O	2.138642	0.125195	-0.390765
C115	C	1.579097	-0.307367	-0.827653
C116	C	2.079097	0.192633	-0.327653
H117	H	1.499868	-0.344234	-0.811401
H118	H	1.999868	0.155766	-0.311401
H119	H	1.621577	-0.293470	-0.750860
H120	H	2.121577	0.206530	-0.250860
H121	H	1.567698	-0.229867	-0.869661
H122	H	2.067698	0.270133	-0.369661
H123	H	1.455957	-1.070121	-0.557845
H124	H	1.955957	-0.570121	-0.057845
O125	O	1.638746	-0.374797	-1.117341
O126	O	2.138746	0.125203	-0.617341
C127	C	1.624363	-0.389200	-1.225339
C128	C	2.124363	0.110800	-0.725339
H129	H	1.543697	-0.423432	-1.240131
H130	H	2.043697	0.076568	-0.740131
H131	H	1.631447	-0.310946	-1.266905
H132	H	2.131447	0.189054	-0.766905
H133	H	1.686313	-0.444867	-1.256312
H134	H	2.186313	0.055133	-0.756312
