data_functionalizedCrystal
_audit_creation_method	'MofGen! by Chris Wilmer'
_symmetry_space_group_name_H-M	'P1'
_symmetry_Int_Tables_number	1
_symmetry_cell_setting	triclinic
loop_
_symmetry_equiv_pos_as_xyz
  x,y,z
_cell_length_a	18.215407
_cell_length_b	12.759394
_cell_length_c	18.215399
_cell_angle_alpha	89.974305
_cell_angle_beta	89.980650
_cell_angle_gamma	90.015285
loop_
_atom_site_label
_atom_site_type_symbol
_atom_site_fract_x
_atom_site_fract_y
_atom_site_fract_z
Zn1	Zn	1.125120	-0.418260	-0.416130
Zn2	Zn	1.625120	0.081740	0.083870
Zn3	Zn	1.125051	-0.593959	-0.293069
Zn4	Zn	1.625051	-0.093959	0.206931
Zn5	Zn	1.002053	-0.418296	-0.293077
Zn6	Zn	1.502053	0.081704	0.206923
Zn7	Zn	1.002040	-0.593899	-0.416094
Zn8	Zn	1.502040	-0.093899	0.083906
O9	O	1.063566	-0.506104	-0.354592
O10	O	1.563566	-0.006104	0.145408
O11	O	1.228095	-0.441577	-0.399817
O12	O	1.728095	0.058423	0.100183
O13	O	1.108712	-0.570697	-0.190086
O14	O	1.608712	-0.070697	0.309914
O15	O	1.018413	-0.271270	-0.309418
O16	O	1.518413	0.228730	0.190582
O17	O	1.228044	-0.570662	-0.309405
O18	O	1.728044	-0.070662	0.190595
O19	O	1.108829	-0.271244	-0.399825
O20	O	1.608829	0.228756	0.100175
O21	O	1.018346	-0.441638	-0.190092
O22	O	1.518346	0.058362	0.309908
O23	O	0.899067	-0.441580	-0.309384
O24	O	1.399067	0.058420	0.190616
O25	O	1.018390	-0.570560	-0.519083
O26	O	1.518390	-0.070560	-0.019083
O27	O	0.899057	-0.570595	-0.399764
O28	O	1.399057	-0.070595	0.100236
O29	O	1.108816	-0.441519	-0.519109
O30	O	1.608816	0.058481	-0.019109
O31	O	1.108699	-0.740972	-0.309370
O32	O	1.608699	-0.240972	0.190630
O33	O	1.018323	-0.740928	-0.399756
O34	O	1.518323	-0.240928	0.100244
C35	C	0.872360	-0.506086	-0.354571
C36	C	1.372360	-0.006086	0.145429
C37	C	0.790561	-0.506103	-0.354580
C38	C	1.290561	-0.006103	0.145420
C39	C	0.602381	-0.573387	-0.401582
C40	C	1.102381	-0.073387	0.098418
C41	C	0.525522	-0.573390	-0.401591
C42	C	1.025522	-0.073390	0.098409
C43	C	0.525503	-0.438839	-0.307619
C44	C	1.025503	0.061161	0.192381
C45	C	0.602360	-0.438832	-0.307614
C46	C	1.102360	0.061168	0.192386
C47	C	0.640797	-0.506111	-0.354594
C48	C	1.140797	-0.006111	0.145406
C49	C	0.487081	-0.506122	-0.354608
C50	C	0.987081	-0.006122	0.145392
C51	C	0.403748	-0.506126	-0.354618
C52	C	0.903748	-0.006126	0.145382
C53	C	0.724136	-0.506107	-0.354586
C54	C	1.224136	-0.006107	0.145414
C55	C	1.063522	-0.779071	-0.354575
C56	C	1.563522	-0.279071	0.145425
C57	C	1.063570	-0.895848	-0.354592
C58	C	1.563570	-0.395848	0.145408
C59	C	1.157749	-0.895840	-0.260543
C60	C	1.657749	-0.395840	0.239457
C61	C	1.204858	-0.950697	-0.213528
C62	C	1.704858	-0.450697	0.286472
C63	C	1.204901	-1.060419	-0.213548
C64	C	1.704901	-0.560419	0.286452
C65	C	1.157832	-1.115286	-0.260590
C66	C	1.657832	-0.615286	0.239410
C67	C	1.110723	-1.060429	-0.307605
C68	C	1.610723	-0.560429	0.192395
C69	C	1.110684	-0.950705	-0.307579
C70	C	1.610684	-0.450705	0.192421
C71	C	1.016549	-1.060437	-0.401656
C72	C	1.516549	-0.560437	0.098344
C73	C	1.016501	-0.950715	-0.401634
C74	C	1.516501	-0.450715	0.098366
C75	C	0.969480	-1.115304	-0.448698
C76	C	1.469480	-0.615304	0.051302
C77	C	0.922367	-1.060447	-0.495711
C78	C	1.422367	-0.560447	0.004289
C79	C	0.922325	-0.950718	-0.495689
C80	C	1.422325	-0.450718	0.004311
C81	C	0.969393	-0.895858	-0.448649
C82	C	1.469393	-0.395858	0.051351
C83	C	1.255519	-0.506122	-0.354614
C84	C	1.755519	-0.006122	0.145386
C85	C	1.337318	-0.506131	-0.354623
C86	C	1.837318	-0.006131	0.145377
C87	C	1.063609	-0.506029	-0.546545
C88	C	1.563609	-0.006029	-0.046545
C89	C	1.063628	-0.505998	-0.628344
C90	C	1.563628	-0.005998	-0.128344
C91	C	1.063630	-0.232070	-0.354626
C92	C	1.563630	0.267930	0.145374
C93	C	1.063658	-0.115294	-0.354641
C94	C	1.563658	0.384706	0.145359
C95	C	1.110740	-0.438715	-0.893417
C96	C	1.610740	0.061285	-0.393417
C97	C	1.110731	-0.438744	-0.816558
C98	C	1.610731	0.061256	-0.316558
C99	C	1.016575	-0.573128	-0.816520
C100	C	1.516575	-0.073128	-0.316520
C101	C	1.016588	-0.573104	-0.893378
C102	C	1.516588	-0.073104	-0.393378
C103	C	1.063669	-0.505892	-0.931824
C104	C	1.563669	-0.005892	-0.431824
C105	C	1.063648	-0.505944	-0.778108
C106	C	1.563648	-0.005944	-0.278108
C107	C	1.063638	-0.505975	-0.694774
C108	C	1.563638	-0.005975	-0.194774
C109	C	1.063680	-0.505861	-1.015163
C110	C	1.563680	-0.005861	-0.515163
C111	C	1.063565	-0.506102	-0.163386
C112	C	1.563565	-0.006102	0.336614
C113	C	1.063689	-0.505838	-0.081588
C114	C	1.563689	-0.005838	0.418412
H115	H	1.243182	-0.906015	-0.175228
H116	H	1.743182	-0.406015	0.324772
H117	H	0.978242	-0.627848	-0.785208
H118	H	1.478242	-0.127848	-0.285208
H119	H	0.978257	-0.627812	-0.924650
H120	H	1.478257	-0.127812	-0.424650
O121	O	1.161516	-0.366233	-0.934895
O122	O	1.661516	0.133767	-0.434895
H123	H	1.219271	-0.384260	-0.920162
H124	H	1.719271	0.115740	-0.420162
H125	H	1.157709	-0.806499	-0.260513
H126	H	1.657709	-0.306499	0.239487
O127	O	0.643842	-0.645936	-0.452259
O128	O	1.143842	-0.145936	0.047741
H129	H	0.604213	-0.692709	-0.484939
H130	H	1.104213	-0.192709	0.015061
O131	O	0.484084	-0.646068	-0.452187
O132	O	0.984084	-0.146068	0.047813
H133	H	0.523727	-0.692893	-0.484819
H134	H	1.023727	-0.192893	0.015181
H135	H	1.243264	-1.105083	-0.175267
H136	H	1.743264	-0.605083	0.324733
H137	H	1.149061	-0.384043	-0.785290
H138	H	1.649061	0.115957	-0.285290
O139	O	0.484047	-0.366309	-0.256925
O140	O	0.984047	0.133691	0.243075
H141	H	0.424149	-0.377633	-0.264808
H142	H	0.924149	0.122367	0.235192
H143	H	0.969522	-1.204645	-0.448714
H144	H	1.469522	-0.704645	0.051286
O145	O	0.643804	-0.366283	-0.256922
O146	O	1.143804	0.133717	0.243078
H147	H	0.604166	-0.319517	-0.224243
H148	H	1.104166	0.180483	0.275757
H149	H	1.157877	-1.204627	-0.260608
H150	H	1.657877	-0.704627	0.239392
H151	H	0.883967	-0.906060	-0.533977
H152	H	1.383967	-0.406060	-0.033977
O153	O	0.871599	-1.119628	-0.546436
O154	O	1.371599	-0.619628	-0.046436
H155	H	0.904537	-1.169545	-0.583914
H156	H	1.404537	-0.669545	-0.083914
O157	O	0.969335	-0.777515	-0.448630
O158	O	1.469335	-0.277515	0.051370
H159	H	1.024820	-0.748495	-0.463548
H160	H	1.524820	-0.248495	0.036452
