data_functionalizedCrystal
_audit_creation_method	'MofGen! by Chris Wilmer'
_symmetry_space_group_name_H-M	'P1'
_symmetry_Int_Tables_number	1
_symmetry_cell_setting	triclinic
loop_
_symmetry_equiv_pos_as_xyz
  x,y,z
_cell_length_a	12.759395
_cell_length_b	19.077068
_cell_length_c	19.076919
_cell_angle_alpha	94.470751
_cell_angle_beta	87.716711
_cell_angle_gamma	87.671512
loop_
_atom_site_label
_atom_site_type_symbol
_atom_site_fract_x
_atom_site_fract_y
_atom_site_fract_z
Zn1	Zn	1.563744	0.296653	0.409806
Zn2	Zn	1.897077	0.629986	0.743139
Zn3	Zn	2.230410	0.963320	1.076472
Zn4	Zn	1.563614	0.409806	0.296650
Zn5	Zn	1.896947	0.743140	0.629984
Zn6	Zn	2.230280	1.076473	0.963317
Zn7	Zn	1.395412	0.291940	0.291940
Zn8	Zn	1.728745	0.625274	0.625274
Zn9	Zn	2.062078	0.958607	0.958607
Zn10	Zn	1.380645	0.414507	0.414499
Zn11	Zn	1.713979	0.747840	0.747832
Zn12	Zn	2.047312	1.081173	1.081166
O13	O	1.475854	0.353227	0.353224
O14	O	1.809187	0.686560	0.686557
O15	O	2.142520	1.019893	1.019890
O16	O	1.710747	0.311668	0.394802
O17	O	2.044080	0.645002	0.728136
O18	O	2.377413	0.978335	1.061469
O19	O	1.547427	0.390232	0.197378
O20	O	1.880760	0.723565	0.530712
O21	O	2.214093	1.056899	0.864045
O22	O	1.423976	0.193916	0.303640
O23	O	1.757309	0.527250	0.636973
O24	O	2.090642	0.860583	0.970307
O25	O	1.710651	0.394801	0.311668
O26	O	2.043985	0.728135	0.645001
O27	O	2.377318	1.061468	0.978334
O28	O	1.547648	0.197378	0.390235
O29	O	1.880982	0.530712	0.723569
O30	O	2.214315	0.864045	1.056902
O31	O	1.423850	0.303636	0.193918
O32	O	1.757183	0.636970	0.527251
O33	O	2.090516	0.970303	0.860585
O34	O	1.246433	0.308194	0.308191
O35	O	1.579766	0.641527	0.641524
O36	O	1.913099	0.974861	0.974858
O37	O	1.398808	0.402812	0.512524
O38	O	1.732142	0.736146	0.845857
O39	O	2.065475	1.069479	1.179190
O40	O	1.235584	0.398243	0.398234
O41	O	1.568917	0.731576	0.731568
O42	O	1.902250	1.064909	1.064901
O43	O	1.533330	0.316226	0.509075
O44	O	1.866663	0.649559	0.842409
O45	O	2.199996	0.982892	1.175742
O46	O	1.533108	0.509079	0.316218
O47	O	1.866442	0.842413	0.649552
O48	O	2.199775	1.175746	0.982885
O49	O	1.398682	0.512532	0.402801
O50	O	1.732016	0.845866	0.736135
O51	O	2.065349	1.179199	1.069468
C52	C	1.202887	0.353218	0.353211
C53	C	1.536221	0.686551	0.686545
C54	C	1.869554	1.019884	1.019878
C55	C	1.086109	0.353231	0.353223
C56	C	1.419442	0.686565	0.686557
C57	C	1.752776	1.019898	1.019890
C58	C	1.464306	0.536385	0.360546
C59	C	1.797640	0.869718	0.693879
C60	C	2.130973	1.203052	1.027212
C61	C	1.459461	0.614742	0.363702
C62	C	1.792794	0.948075	0.697035
C63	C	2.126128	1.281409	1.030368
C64	C	1.464436	0.360569	0.537093
C65	C	1.797770	0.693902	0.870426
C66	C	2.131103	1.027236	1.203760
C67	C	1.459571	0.363698	0.615447
C68	C	1.792904	0.697031	0.948780
C69	C	2.126238	1.030365	1.282114
C70	C	1.074851	0.447139	0.446846
C71	C	1.408184	0.780472	0.780179
C72	C	1.741517	1.113806	1.113512
C73	C	1.014360	0.494099	0.493659
C74	C	1.347694	0.827432	0.826992
C75	C	1.681027	1.160765	1.160326
C76	C	0.904638	0.494107	0.493668
C77	C	1.237971	0.827441	0.827001
C78	C	1.571304	1.160774	1.160335
C79	C	0.855404	0.447150	0.446860
C80	C	1.188737	0.780484	0.780193
C81	C	1.522070	1.113817	1.113527
C82	C	0.915894	0.400191	0.400047
C83	C	1.249227	0.733524	0.733380
C84	C	1.582561	1.066858	1.066713
C85	C	1.025619	0.400188	0.400041
C86	C	1.358952	0.733522	0.733375
C87	C	1.692285	1.066855	1.066708
C88	C	0.927152	0.306281	0.306429
C89	C	1.260485	0.639614	0.639762
C90	C	1.593819	0.972948	0.973096
C91	C	1.036875	0.306274	0.306415
C92	C	1.370208	0.639608	0.639749
C93	C	1.703542	0.972941	0.973082
C94	C	0.877918	0.259324	0.259621
C95	C	1.211251	0.592657	0.592954
C96	C	1.544585	0.925990	0.926288
C97	C	0.938409	0.212367	0.212803
C98	C	1.271742	0.545700	0.546137
C99	C	1.605075	0.879033	0.879470
C100	C	1.048138	0.212360	0.212796
C101	C	1.381471	0.545694	0.546129
C102	C	1.714804	0.879027	0.879462
C103	C	1.097365	0.259315	0.259602
C104	C	1.430699	0.592648	0.592935
C105	C	1.764032	0.925981	0.926269
C106	C	1.749886	0.353236	0.353237
C107	C	2.083219	0.686570	0.686570
C108	C	2.416552	1.019903	1.019903
C109	C	1.866662	0.353240	0.353242
C110	C	2.199995	0.686574	0.686576
C111	C	2.533328	1.019907	1.019909
C112	C	1.487474	0.169353	0.345889
C113	C	1.820807	0.502687	0.679222
C114	C	2.154140	0.836020	1.012555
C115	C	1.492425	0.090998	0.342763
C116	C	1.825759	0.424331	0.676096
C117	C	2.159092	0.757664	1.009430
C118	C	1.527223	0.649735	0.320143
C119	C	1.860556	0.983068	0.653476
C120	C	2.193890	1.316401	0.986809
C121	C	1.522672	0.723360	0.323115
C122	C	1.856005	1.056693	0.656448
C123	C	2.189338	1.390026	0.989782
C124	C	1.450353	0.761991	0.369643
C125	C	1.783686	1.095324	0.702977
C126	C	2.117019	1.428657	1.036310
C127	C	1.382588	0.726993	0.413207
C128	C	1.715921	1.060326	0.746541
C129	C	2.049254	1.393660	1.079874
C130	C	1.387145	0.653370	0.410238
C131	C	1.720478	0.986703	0.743571
C132	C	2.053812	1.320036	1.076905
C133	C	1.429218	0.982377	0.383357
C134	C	1.762551	1.315710	0.716691
C135	C	2.095884	1.649043	1.050024
C136	C	1.424663	1.056005	0.386322
C137	C	1.757997	1.389338	0.719655
C138	C	2.091330	1.722672	1.052989
C139	C	1.564749	1.052367	0.296230
C140	C	1.898083	1.385700	0.629564
C141	C	2.231416	1.719033	0.962897
C142	C	1.569296	0.978742	0.293262
C143	C	1.902629	1.312075	0.626595
C144	C	2.235962	1.645408	0.959929
C145	C	1.501535	0.943751	0.336828
C146	C	1.834868	1.277084	0.670162
C147	C	2.168201	1.610417	1.003495
N148	N	1.445696	0.837247	0.372681
N149	N	1.779030	1.170580	0.706015
N150	N	2.112363	1.503914	1.039348
N151	N	1.506197	0.868496	0.333794
N152	N	1.839530	1.201829	0.667127
N153	N	2.172863	1.535162	1.000460
C154	C	1.487290	0.345862	0.170068
C155	C	1.820623	0.679195	0.503401
C156	C	2.153957	1.012529	0.836735
C157	C	1.492371	0.342534	0.091706
C158	C	1.825705	0.675868	0.425040
C159	C	2.159038	1.009201	0.758373
C160	C	1.527320	0.320089	0.650464
C161	C	1.860653	0.653422	0.983797
C162	C	2.193987	0.986756	1.317130
C163	C	1.522736	0.323026	0.724086
C164	C	1.856069	0.656360	1.057419
C165	C	2.189402	0.989693	1.390752
C166	C	1.450407	0.369576	0.762689
C167	C	1.783740	0.702910	1.096023
C168	C	2.117074	1.036243	1.429356
C169	C	1.382651	0.413187	0.727667
C170	C	1.715984	0.746521	1.061001
C171	C	2.049318	1.079854	1.394334
C172	C	1.387231	0.410246	0.654047
C173	C	1.720564	0.743579	0.987380
C174	C	2.053898	1.076913	1.320713
C175	C	1.429195	0.383204	0.983064
C176	C	1.762528	0.716537	1.316397
C177	C	2.095862	1.049870	1.649731
C178	C	1.424622	0.386143	1.056690
C179	C	1.757956	0.719477	1.390023
C180	C	2.091289	1.052810	1.723356
C181	C	1.564706	0.295981	1.053103
C182	C	1.898040	0.629314	1.386436
C183	C	2.231373	0.962648	1.719769
C184	C	1.569284	0.293047	0.979481
C185	C	1.902617	0.626380	1.312814
C186	C	2.235951	0.959714	1.646148
C187	C	1.501524	0.336655	0.944465
C188	C	1.834858	0.669988	1.277799
C189	C	2.168191	1.003322	1.611132
N190	N	1.445722	0.372582	0.837943
N191	N	1.779055	0.705915	1.171276
N192	N	2.112389	1.039248	1.504609
N193	N	1.506205	0.333646	0.869213
N194	N	1.839539	0.666979	1.202546
N195	N	2.172872	1.000313	1.535880
H196	H	1.164192	0.447141	0.446838
H197	H	1.497526	0.780475	0.780171
H198	H	1.830859	1.113808	1.113505
F199	F	1.357098	0.945146	0.429724
F200	F	1.690432	1.278479	0.763058
F201	F	2.023765	1.611813	1.096391
H202	H	0.788576	0.259332	0.259635
H203	H	1.121909	0.592665	0.592968
H204	H	1.455242	0.925998	0.926301
H205	H	1.186707	0.259316	0.259599
H206	H	1.520040	0.592649	0.592932
H207	H	1.853373	0.925983	0.926265
H208	H	1.332052	0.445750	0.625537
H209	H	1.665386	0.779083	0.958870
H210	H	1.998719	1.112417	1.292204
H211	H	1.586108	0.618286	0.282251
H212	H	1.919442	0.951619	0.615584
H213	H	2.252775	1.284952	0.948918
F214	F	1.646279	0.937633	0.243748
F215	F	1.979612	1.270967	0.577081
F216	F	2.312945	1.604300	0.910415
F217	F	1.305669	0.462727	0.768754
F218	F	1.639002	0.796060	1.102088
F219	F	1.972336	1.129394	1.435421
F220	F	1.315026	0.616129	0.456601
F221	F	1.648359	0.949462	0.789935
F222	F	1.981693	1.282795	1.123268
H223	H	1.577906	0.287517	0.752593
H224	H	1.911240	0.620850	1.085926
H225	H	2.244573	0.954184	1.419260
F226	F	0.886004	0.162393	0.162997
F227	F	1.219338	0.495726	0.496330
F228	F	1.552671	0.829060	0.829664
F229	F	1.636865	1.089612	0.249870
F230	F	1.970198	1.422945	0.583204
F231	F	2.303531	1.756279	0.916537
H232	H	1.097383	0.174115	0.174679
H233	H	1.430717	0.507448	0.508012
H234	H	1.764050	0.840782	0.841346
H235	H	1.365784	1.087457	0.424223
H236	H	1.699118	1.420791	0.757557
H237	H	2.032451	1.754124	1.090890
H238	H	1.054459	0.532329	0.531770
H239	H	1.387792	0.865662	0.865103
H240	H	1.721126	1.198996	1.198437
H241	H	1.323708	0.758452	0.451095
H242	H	1.657042	1.091786	0.784428
H243	H	1.990375	1.425119	1.117761
F244	F	1.594797	0.760598	0.276755
F245	F	1.928130	1.093931	0.610089
F246	F	2.261463	1.427265	0.943422
F247	F	0.840258	0.544083	0.543495
F248	F	1.173591	0.877416	0.876828
F249	F	1.506924	1.210750	1.210162
F250	F	1.646267	0.243502	0.938401
F251	F	1.979600	0.576835	1.271734
F252	F	2.312933	0.910169	1.605068
F253	F	0.738626	0.447154	0.446880
F254	F	1.071960	0.780487	0.780214
F255	F	1.405293	1.113821	1.113547
H256	H	1.586221	0.282185	0.619038
H257	H	1.919554	0.615518	0.952371
H258	H	2.252888	0.948852	1.285704
H259	H	1.619871	0.260477	1.081620
H260	H	1.953205	0.593810	1.414954
H261	H	2.286538	0.927144	1.748287
H262	H	1.365720	0.424052	1.088119
H263	H	1.699054	0.757385	1.421453
H264	H	2.032387	1.090719	1.754786
H265	H	1.374035	0.418723	0.954564
H266	H	1.707368	0.752056	1.287897
H267	H	2.040702	1.085390	1.621230
