data_functionalizedCrystal
_audit_creation_method	'MofGen! by Chris Wilmer'
_symmetry_space_group_name_H-M	'P1'
_symmetry_Int_Tables_number	1
_symmetry_cell_setting	triclinic
loop_
_symmetry_equiv_pos_as_xyz
  x,y,z
_cell_length_a	16.959447
_cell_length_b	10.686220
_cell_length_c	10.686285
_cell_angle_alpha	89.654569
_cell_angle_beta	85.609753
_cell_angle_gamma	85.647861
loop_
_atom_site_label
_atom_site_type_symbol
_atom_site_fract_x
_atom_site_fract_y
_atom_site_fract_z
Zn1	Zn	-0.336168	-1.956148	-0.352100
Zn2	Zn	0.163832	-1.456148	0.147900
Zn3	Zn	-0.193167	-1.972154	-0.561884
Zn4	Zn	0.306833	-1.472154	-0.061884
Zn5	Zn	-0.213297	-1.746385	-0.368251
Zn6	Zn	0.286703	-1.246385	0.131749
Zn7	Zn	-0.334598	-1.762473	-0.577921
Zn8	Zn	0.165402	-1.262473	-0.077921
O9	O	-0.269308	-1.859290	-0.465039
O10	O	0.230692	-1.359290	0.034961
O11	O	-0.309431	-2.133809	-0.366457
O12	O	0.190569	-1.633809	0.133543
O13	O	-0.085226	-1.942171	-0.536246
O14	O	0.414774	-1.442171	-0.036246
O15	O	-0.238677	-1.760779	-0.190565
O16	O	0.261323	-1.260779	0.309435
O17	O	-0.204369	-2.145569	-0.520585
O18	O	0.295631	-1.645569	-0.020585
O19	O	-0.328950	-1.914891	-0.178699
O20	O	0.171050	-1.414891	0.321301
O21	O	-0.100015	-1.776300	-0.393984
O22	O	0.399985	-1.276300	0.106016
O23	O	-0.237155	-1.572981	-0.409535
O24	O	0.262845	-1.072981	0.090465
O25	O	-0.445418	-1.788199	-0.547918
O26	O	0.054582	-1.288199	-0.047918
O27	O	-0.326275	-1.584801	-0.563579
O28	O	0.173725	-1.084801	-0.063579
O29	O	-0.446571	-1.930491	-0.382008
O30	O	0.053429	-1.430491	0.117992
O31	O	-0.202847	-1.957770	-0.739555
O32	O	0.297153	-1.457770	-0.239555
O33	O	-0.306756	-1.803719	-0.751337
O34	O	0.193244	-1.303719	-0.251337
C35	C	-0.283730	-1.533376	-0.490051
C36	C	0.216270	-1.033376	0.009949
C37	C	-0.289917	-1.393950	-0.500781
C38	C	0.210083	-0.893950	-0.000781
C39	C	-0.252463	-1.884261	-0.790960
C40	C	0.247537	-1.384261	-0.290960
C41	C	-0.245278	-1.895059	-0.930381
C42	C	0.254722	-1.395059	-0.430381
C43	C	-0.475477	-1.859354	-0.464950
C44	C	0.024523	-1.359354	0.035050
C45	C	-0.563334	-1.859381	-0.464912
C46	C	-0.063334	-1.359381	0.035088
C47	C	-0.604009	-1.785311	-0.551277
C48	C	-0.104009	-1.285311	-0.051277
C49	C	-0.605214	-1.933469	-0.378504
C50	C	-0.105214	-1.433469	0.121496
C51	C	-0.687761	-1.933492	-0.378461
C52	C	-0.187761	-1.433492	0.121539
C53	C	-0.728436	-1.859422	-0.464826
C54	C	-0.228436	-1.359422	0.035174
C55	C	-0.686564	-1.785328	-0.551234
C56	C	-0.186564	-1.285328	-0.051234
C57	C	-0.729639	-2.007574	-0.292046
C58	C	-0.229639	-1.507574	0.207954
C59	C	-0.812191	-2.007599	-0.291999
C60	C	-0.312191	-1.507599	0.208001
C61	C	-0.852868	-1.933535	-0.378371
C62	C	-0.352868	-1.433535	0.121629
C63	C	-0.810991	-1.859439	-0.464783
C64	C	-0.310991	-1.359439	0.035217
C65	C	-0.851666	-1.785369	-0.551148
C66	C	-0.351666	-1.285369	-0.051148
C67	C	-0.809790	-1.711280	-0.637568
C68	C	-0.309790	-1.211280	-0.137568
C69	C	-0.727240	-1.711264	-0.637606
C70	C	-0.227240	-1.211264	-0.137606
C71	C	-0.935417	-1.933550	-0.378332
C72	C	-0.435417	-1.433550	0.121668
C73	C	-0.934221	-1.785387	-0.551106
C74	C	-0.434221	-1.285387	-0.051106
C75	C	-0.063942	-1.859291	-0.465031
C76	C	0.436058	-1.359291	0.034969
C77	C	0.023908	-1.859480	-0.464697
C78	C	0.523908	-1.359480	0.035303
C79	C	-0.254830	-2.186477	-0.439931
C80	C	0.245170	-1.686477	0.060069
C81	C	-0.248660	-2.325904	-0.429231
C82	C	0.251340	-1.825904	0.070769
C83	C	-0.286234	-1.834255	-0.137843
C84	C	0.213766	-1.334255	0.362157
C85	C	-0.293447	-1.823587	0.001588
C86	C	0.206553	-1.323587	0.501588
H87	H	-0.967332	-1.725074	-0.621440
H88	H	-0.467332	-1.225074	-0.121440
H89	H	-0.208604	-1.374312	-0.359766
H90	H	0.291396	-0.874312	0.140234
H91	H	-0.340185	-1.754136	-0.949995
H92	H	0.159815	-1.254136	-0.449995
F93	F	-0.853090	-1.632444	-0.729474
F94	F	-0.353090	-1.132444	-0.229474
F95	F	-0.682669	-1.632412	-0.729565
F96	F	-0.182669	-1.132412	-0.229565
H97	H	-0.198532	-1.964505	-0.978806
H98	H	0.301468	-1.464505	-0.478806
F99	F	-0.856749	-2.086474	-0.200045
F100	F	-0.356749	-1.586474	0.299955
F101	F	-0.559443	-1.706466	-0.643249
F102	F	-0.059443	-1.206466	-0.143249
H103	H	-0.572092	-1.993768	-0.308185
H104	H	-0.072092	-1.493768	0.191815
F105	F	-0.342268	-1.330677	-0.591596
F106	F	0.157732	-0.830677	-0.091596
F107	F	-0.686351	-2.086339	-0.200086
F108	F	-0.186351	-1.586339	0.299914
F109	F	-0.979983	-2.012370	-0.286344
F110	F	-0.479983	-1.512370	0.213656
