data_functionalizedCrystal
_audit_creation_method	'MofGen! by Chris Wilmer'
_symmetry_space_group_name_H-M	'P1'
_symmetry_Int_Tables_number	1
_symmetry_cell_setting	triclinic
loop_
_symmetry_equiv_pos_as_xyz
  x,y,z
_cell_length_a	14.908571
_cell_length_b	15.299816
_cell_length_c	14.908308
_cell_angle_alpha	103.454544
_cell_angle_beta	90.175053
_cell_angle_gamma	77.679493
loop_
_atom_site_label
_atom_site_type_symbol
_atom_site_fract_x
_atom_site_fract_y
_atom_site_fract_z
Zn1	Zn	1.423314	-0.480234	-0.675272
Zn2	Zn	1.455541	-0.625789	-0.551491
Zn3	Zn	1.278757	-0.462558	-0.513043
Zn4	Zn	1.296391	-0.624695	-0.692943
O5	O	1.363501	-0.548319	-0.608187
O6	O	1.554691	-0.507396	-0.667548
O7	O	1.438197	-0.597196	-0.419299
O8	O	1.277066	-0.336133	-0.511077
O9	O	1.578368	-0.614335	-0.576606
O10	O	1.383271	-0.349119	-0.630266
O11	O	1.308316	-0.477271	-0.391051
O12	O	1.153994	-0.476211	-0.528211
O13	O	1.307120	-0.612472	-0.817691
O14	O	1.166950	-0.595333	-0.660383
O15	O	1.400370	-0.506336	-0.804708
O16	O	1.455296	-0.754414	-0.593741
O17	O	1.338369	-0.753610	-0.697665
C18	C	1.127516	-0.533736	-0.592043
C19	C	1.026563	-0.527521	-0.585163
C20	C	0.850438	-0.640057	-0.709741
C21	C	0.755584	-0.634220	-0.703279
C22	C	0.741999	-0.510007	-0.565783
C23	C	0.836853	-0.515844	-0.572244
C24	C	0.891070	-0.580872	-0.644225
C25	C	0.985926	-0.586712	-0.650682
C26	C	0.972338	-0.462495	-0.513190
C27	C	0.877485	-0.456658	-0.506728
C28	C	1.402267	-0.787403	-0.651814
C29	C	1.418933	-0.889692	-0.670514
C30	C	1.244967	-1.151286	-0.474886
C31	C	1.229304	-1.055181	-0.457319
C32	C	1.276710	-1.013804	-0.510616
C33	C	1.339782	-1.068541	-0.581484
C34	C	1.355441	-1.164656	-0.599058
C35	C	1.387184	-1.027173	-0.634787
C36	C	1.450255	-1.081911	-0.705655
C37	C	1.465912	-1.178016	-0.723226
C38	C	1.418506	-1.219393	-0.669929
C39	C	1.371524	-0.931059	-0.617213
C40	C	1.481998	-0.944429	-0.741385
C41	C	1.497661	-1.040534	-0.758952
C42	C	1.600407	-0.562959	-0.624395
C43	C	1.701362	-0.569198	-0.631302
C44	C	1.352117	-0.561254	-0.845075
C45	C	1.347266	-0.566766	-0.946022
C46	C	1.324607	-0.308303	-0.564412
C47	C	1.308033	-0.206023	-0.545757
C48	C	1.435245	-0.466583	-1.122191
C49	C	1.430689	-0.471759	-1.217040
C50	C	1.333594	-0.582288	-1.230568
C51	C	1.338150	-0.577112	-1.135719
C52	C	1.388978	-0.519259	-1.081534
C53	C	1.393538	-0.514088	-0.986685
C54	C	1.296438	-0.624612	-1.000214
C55	C	1.291883	-0.629788	-1.095062
C56	C	1.374882	-0.535371	-0.372213
C57	C	1.379866	-0.529611	-0.271231
H58	H	0.697839	-0.457059	-0.507184
O59	O	1.310155	-0.877853	-0.548490
C60	C	1.170497	-0.761177	-0.507958
C61	C	1.239917	-0.821392	-0.585885
H62	H	1.113703	-0.715499	-0.538160
H63	H	1.139232	-0.807214	-0.472889
H64	H	1.207206	-0.716191	-0.455116
H65	H	1.203275	-0.866386	-0.638787
H66	H	1.271179	-0.775302	-0.620881
H67	H	1.431259	-1.297649	-0.684225
O68	O	1.198889	-1.191586	-0.423264
C69	C	1.094523	-1.291930	-0.422429
C70	C	1.146676	-1.246366	-0.481007
H71	H	1.052281	-1.336214	-0.469087
H72	H	1.145831	-1.336957	-0.386078
H73	H	1.046798	-1.236289	-0.368734
H74	H	1.194401	-1.301945	-0.534750
H75	H	1.095317	-1.201318	-0.517292
O76	O	1.011787	-0.405084	-0.449428
C77	C	1.040847	-0.353492	-0.288781
C78	C	0.996148	-0.418569	-0.360897
H79	H	1.028203	-0.364359	-0.217185
H80	H	1.117970	-0.368830	-0.305679
H81	H	1.009401	-0.279054	-0.290089
H82	H	1.027520	-0.493029	-0.359628
H83	H	0.919025	-0.403151	-0.343973
H84	H	1.263954	-0.935550	-0.496307
O85	O	1.527113	-1.231324	-0.792061
C86	C	1.600234	-1.385309	-0.874127
C87	C	1.530885	-1.325050	-0.796157
H88	H	1.603322	-1.461098	-0.877452
H89	H	1.577636	-1.369476	-0.942827
H90	H	1.671141	-1.369956	-0.859780
H91	H	1.459956	-1.340369	-0.810416
H92	H	1.553561	-1.340893	-0.727483
H93	H	1.177951	-1.010617	-0.399620
H94	H	1.292212	-0.629389	-1.274701
H95	H	0.833328	-0.403712	-0.448126
O96	O	1.558861	-1.093845	-0.827786
C97	C	1.631980	-1.247835	-0.909843
C98	C	1.562632	-1.187569	-0.831876
H99	H	1.635066	-1.323622	-0.913163
H100	H	1.609383	-1.232006	-0.978545
H101	H	1.702888	-1.232482	-0.895498
H102	H	1.491702	-1.202888	-0.846133
H103	H	1.585307	-1.203408	-0.763199
O104	O	1.528006	-0.904097	-0.793049
C105	C	1.552798	-0.761957	-0.821042
C106	C	1.500657	-0.807520	-0.762452
H107	H	1.530692	-0.683867	-0.796340
H108	H	1.629891	-0.784382	-0.813597
H109	H	1.536365	-0.783900	-0.896620
H110	H	1.517014	-0.785598	-0.686853
H111	H	1.423578	-0.785095	-0.769977
H112	H	1.250498	-0.676889	-1.139192
H113	H	1.476637	-0.419481	-1.078074
H114	H	1.434927	-0.466982	-0.942569
H115	H	1.258767	-0.667507	-0.967102
H116	H	1.468362	-0.428862	-1.250138
H117	H	0.894583	-0.693010	-0.768346
O118	O	1.038531	-0.649781	-0.720711
C119	C	1.067417	-0.704928	-0.885306
C120	C	1.007790	-0.633436	-0.806081
H121	H	1.042573	-0.691749	-0.954346
H122	H	1.142199	-0.698938	-0.878751
H123	H	1.061584	-0.777073	-0.881464
H124	H	1.013545	-0.561259	-0.809873
H125	H	0.933033	-0.639506	-0.812663
O126	O	0.716267	-0.691809	-0.766976
C127	C	0.739746	-0.815584	-0.904073
C128	C	0.784394	-0.750436	-0.831981
H129	H	0.794802	-0.862987	-0.956659
H130	H	0.705165	-0.858691	-0.868105
H131	H	0.686196	-0.773249	-0.940860
H132	H	0.837982	-0.792698	-0.795171
H133	H	0.818915	-0.707325	-0.868001
