data_functionalizedCrystal
_audit_creation_method	'MofGen! by Chris Wilmer'
_symmetry_space_group_name_H-M	'P1'
_symmetry_Int_Tables_number	1
_symmetry_cell_setting	triclinic
loop_
_symmetry_equiv_pos_as_xyz
  x,y,z
_cell_length_a	17.640280
_cell_length_b	12.827893
_cell_length_c	12.827885
_cell_angle_alpha	90.019272
_cell_angle_beta	78.769256
_cell_angle_gamma	101.199338
loop_
_atom_site_label
_atom_site_type_symbol
_atom_site_fract_x
_atom_site_fract_y
_atom_site_fract_z
Zn1	Zn	-0.314632	-1.681787	-0.506827
Zn2	Zn	0.185368	-1.181787	-0.006827
Zn3	Zn	-0.446826	-1.717023	-0.296785
Zn4	Zn	0.053174	-1.217023	0.203215
Zn5	Zn	-0.314670	-1.507038	-0.332090
Zn6	Zn	0.185330	-1.007038	0.167910
Zn7	Zn	-0.446767	-1.542340	-0.471501
Zn8	Zn	0.053233	-1.042340	0.028499
O9	O	-0.380724	-1.612047	-0.401801
O10	O	0.119276	-1.112047	0.098199
O11	O	-0.332176	-1.832699	-0.478973
O12	O	0.167824	-1.332699	0.021027
O13	O	-0.429336	-1.689141	-0.155221
O14	O	0.070664	-1.189141	0.344779
O15	O	-0.204058	-1.500699	-0.384829
O16	O	0.295942	-1.000699	0.115171
O17	O	-0.429298	-1.858587	-0.324656
O18	O	0.070702	-1.358587	0.175344
O19	O	-0.204030	-1.629086	-0.513207
O20	O	0.295970	-1.129086	-0.013207
O21	O	-0.332242	-1.534866	-0.181160
O22	O	0.167758	-1.034866	0.318840
O23	O	-0.332185	-1.365483	-0.350575
O24	O	0.167815	-0.865483	0.149425
O25	O	-0.429198	-1.560865	-0.622434
O26	O	0.070802	-1.060865	-0.122434
O27	O	-0.429235	-1.391419	-0.452999
O28	O	0.070765	-0.891419	0.047001
O29	O	-0.332119	-1.663316	-0.648388
O30	O	0.167881	-1.163316	-0.148388
O31	O	-0.557424	-1.723371	-0.290402
O32	O	-0.057424	-1.223371	0.209598
O33	O	-0.557381	-1.595032	-0.418765
O34	O	-0.057381	-1.095032	0.081235
C35	C	-0.586082	-1.666884	-0.346942
C36	C	-0.086082	-1.166884	0.153058
C37	C	-0.673935	-1.690439	-0.323508
C38	C	-0.173935	-1.190439	0.176492
C39	C	-0.380708	-1.340533	-0.401785
C40	C	0.119292	-0.840533	0.098215
C41	C	-0.380721	-1.224383	-0.401798
C42	C	0.119279	-0.724383	0.098202
C43	C	-0.380648	-1.612098	-0.674391
C44	C	0.119352	-1.112098	-0.174391
C45	C	-0.380615	-1.612119	-0.790553
C46	C	0.119385	-1.112119	-0.290553
C47	C	-0.962898	-1.433529	-0.580206
C48	C	-0.462898	-0.933529	-0.080206
C49	C	-1.045449	-1.455665	-0.558153
C50	C	-0.545449	-0.955665	-0.058153
C51	C	-1.045429	-1.589387	-0.424624
C52	C	-0.545429	-1.089387	0.075376
C53	C	-0.962876	-1.567266	-0.446669
C54	C	-0.462876	-1.067266	0.053331
C55	C	-0.921617	-1.489335	-0.524461
C56	C	-0.421617	-0.989335	-0.024461
C57	C	-0.921595	-1.623072	-0.390924
C58	C	-0.421595	-1.123072	0.109076
C59	C	-0.839049	-1.600949	-0.412964
C60	C	-0.339049	-1.100949	0.087036
C61	C	-0.797784	-1.523019	-0.490750
C62	C	-0.297784	-1.023019	0.009250
C63	C	-0.839071	-1.467212	-0.546501
C64	C	-0.339071	-0.967212	-0.046501
C65	C	-0.962855	-1.700998	-0.313128
C66	C	-0.462855	-1.200998	0.186872
C67	C	-0.921574	-1.756804	-0.257382
C68	C	-0.421574	-1.256804	0.242618
C69	C	-0.839027	-1.734686	-0.279427
C70	C	-0.339027	-1.234686	0.220573
C71	C	-0.797762	-1.656757	-0.357213
C72	C	-0.297762	-1.156757	0.142787
C73	C	-0.797740	-1.790494	-0.223676
C74	C	-0.297740	-1.290494	0.276324
C75	C	-0.715194	-1.768370	-0.245716
C76	C	-0.215194	-1.268370	0.254284
C77	C	-0.715216	-1.634633	-0.379253
C78	C	-0.215216	-1.134633	0.120747
C79	C	-0.174563	-1.557024	-0.456897
C80	C	0.325437	-1.057024	0.043103
C81	C	-0.086710	-1.533576	-0.480375
C82	C	0.413290	-1.033576	0.019625
C83	C	-0.380739	-1.884621	-0.401817
C84	C	0.119261	-1.384621	0.098183
C85	C	-0.380746	-2.000776	-0.401824
C86	C	0.119254	-1.500776	0.098176
C87	C	-0.428820	-1.185480	-0.452363
C88	C	0.071180	-0.685480	0.047637
C89	C	-0.428834	-1.065433	-0.452377
C90	C	0.071166	-0.565433	0.047623
C91	C	-0.332568	-1.662820	-0.855183
C92	C	0.167432	-1.162820	-0.355183
C93	C	-0.332534	-1.662843	-0.975243
C94	C	0.167466	-1.162843	-0.475243
C95	C	-0.380742	-1.612041	-0.130286
C96	C	0.119258	-1.112041	0.369714
C97	C	-0.380552	-1.612162	-0.014184
C98	C	0.119448	-1.112162	0.485816
H99	H	-0.681621	-1.571181	-0.442607
H100	H	-0.181621	-1.071181	0.057393
H101	H	-0.421720	-1.568722	-0.824106
H102	H	0.078280	-1.068722	-0.324106
H103	H	-0.339568	-1.034275	-0.358527
H104	H	0.160432	-0.534275	0.141473
F105	F	-0.795156	-1.384277	-0.629305
F106	F	-0.295156	-0.884277	-0.129305
H107	H	-0.681583	-1.813813	-0.200321
H108	H	-0.181583	-1.313813	0.299679
H109	H	-0.291456	-1.706204	-0.821633
H110	H	0.208544	-1.206204	-0.321633
H111	H	-0.421692	-1.568758	-0.958658
H112	H	0.078308	-1.068758	-0.458658
F113	F	-0.482635	-1.258106	-0.508931
F114	F	0.017365	-0.758106	-0.008931
F115	F	-0.482664	-1.021645	-0.508957
F116	F	0.017336	-0.521645	-0.008957
H117	H	-0.339549	-1.168815	-0.358523
H118	H	0.160451	-0.668815	0.141477
F119	F	-0.709931	-1.499661	-0.514395
F120	F	-0.209931	-0.999661	-0.014395
H121	H	-0.291401	-1.706254	-1.030773
H122	H	0.208599	-1.206254	-0.530773
H123	H	-0.929303	-1.370077	-0.643559
H124	H	-0.429303	-0.870077	-0.143559
F125	F	-1.089381	-1.396252	-0.617482
F126	F	-0.589381	-0.896252	-0.117482
H127	H	-0.955179	-1.820252	-0.194042
H128	H	-0.455179	-1.320252	0.305958
F129	F	-1.050709	-1.724571	-0.289701
F130	F	-0.550709	-1.224571	0.210299
F131	F	-1.089348	-1.672325	-0.341837
F132	F	-0.589348	-1.172325	0.158163
H133	H	-0.831345	-1.853937	-0.160332
H134	H	-0.331345	-1.353937	0.339668
