data_functionalizedCrystal
_audit_creation_method	'MofGen! by Chris Wilmer'
_symmetry_space_group_name_H-M	'P1'
_symmetry_Int_Tables_number	1
_symmetry_cell_setting	triclinic
loop_
_symmetry_equiv_pos_as_xyz
  x,y,z
_cell_length_a	19.805407
_cell_length_b	19.805405
_cell_length_c	19.805399
_cell_angle_alpha	90.026615
_cell_angle_beta	90.019573
_cell_angle_gamma	90.026726
loop_
_atom_site_label
_atom_site_type_symbol
_atom_site_fract_x
_atom_site_fract_y
_atom_site_fract_z
Zn1	Zn	1.034734	-0.269479	0.382724
Zn2	Zn	1.034648	-0.382667	0.269538
Zn3	Zn	0.921549	-0.269498	0.269549
Zn4	Zn	0.921512	-0.382631	0.382685
O5	O	0.978111	-0.326069	0.326124
O6	O	1.129439	-0.284501	0.367722
O7	O	1.019625	-0.367678	0.174823
O8	O	0.936615	-0.174778	0.284583
O9	O	1.129376	-0.367660	0.284564
O10	O	1.019771	-0.174765	0.367732
O11	O	0.936531	-0.284533	0.174831
O12	O	0.826827	-0.284498	0.284544
O13	O	0.936551	-0.367598	0.477406
O14	O	0.826800	-0.367617	0.367665
O15	O	1.019735	-0.284466	0.477436
O16	O	1.019589	-0.477379	0.284526
O17	O	0.936468	-0.477353	0.367654
C18	C	0.802255	-0.326056	0.326102
C19	C	0.727023	-0.326067	0.326109
C20	C	0.691682	-0.369412	0.369319
C21	C	0.620994	-0.369413	0.369329
C22	C	0.585647	-0.326072	0.326124
C23	C	0.620993	-0.282722	0.282911
C24	C	0.691680	-0.282718	0.282906
C25	C	0.335920	-0.282737	0.282934
C26	C	0.265227	-0.282746	0.282941
C27	C	0.265233	-0.369432	0.369357
C28	C	0.335920	-0.369428	0.369351
C29	C	0.371260	-0.326076	0.326142
C30	C	0.447908	-0.326074	0.326133
C31	C	0.509000	-0.326076	0.326129
C32	C	0.978034	-0.501925	0.326099
C33	C	0.978063	-0.577157	0.326112
C34	C	1.021337	-0.612436	0.369441
C35	C	1.021361	-0.683124	0.369454
C36	C	0.978114	-0.718532	0.326133
C37	C	0.934835	-0.683249	0.282801
C38	C	0.934808	-0.612561	0.282792
C39	C	0.934944	-0.968322	0.282836
C40	C	0.934976	-1.039014	0.282846
C41	C	1.021497	-1.038884	0.369497
C42	C	1.021470	-0.968197	0.369489
C43	C	0.978189	-0.932920	0.326160
C44	C	0.978162	-0.856271	0.326147
C45	C	0.978144	-0.795179	0.326141
C46	C	1.154653	-0.326082	0.326146
C47	C	1.229885	-0.326088	0.326156
C48	C	0.978149	-0.326026	0.502667
C49	C	0.978165	-0.326008	0.577899
C50	C	0.978207	-0.149526	0.326163
C51	C	0.978248	-0.074294	0.326180
C52	C	0.978112	-0.326062	0.150268
C53	C	0.978227	-0.325890	0.075036
C54	C	1.021480	-0.282719	0.613259
C55	C	1.021487	-0.282699	0.683948
C56	C	0.978182	-0.325973	0.719274
C57	C	0.934862	-0.369264	0.683909
C58	C	0.934852	-0.369279	0.613222
C59	C	0.934900	-0.369201	0.968982
C60	C	0.934915	-0.369183	1.039675
C61	C	1.021535	-0.282620	1.039708
C62	C	1.021525	-0.282636	0.969021
C63	C	0.978203	-0.325924	0.933662
C64	C	0.978195	-0.325944	0.857013
C65	C	0.978193	-0.325957	0.795922
H66	H	0.236450	-0.247448	0.247758
C67	C	0.887204	-0.573755	0.235125
N68	N	0.851345	-0.544527	0.199223
C69	C	0.374784	-0.235052	0.235397
N70	N	0.404059	-0.199135	0.199589
C71	C	0.582109	-0.235044	0.235387
N72	N	0.552823	-0.199134	0.199589
H73	H	0.899600	-0.404495	0.712678
H74	H	0.720456	-0.404707	0.404500
C75	C	0.887269	-0.416785	1.078533
N76	N	0.851384	-0.452636	1.107801
C77	C	1.068975	-0.721927	0.417111
N78	N	1.104843	-0.751154	0.453006
H79	H	0.592222	-0.404709	0.404515
C80	C	1.069103	-1.077696	0.417166
N81	N	1.104959	-1.106928	0.453068
C82	C	0.887204	-0.416902	0.574326
N83	N	0.851312	-0.452772	0.545030
C84	C	1.069119	-0.235113	0.574406
N85	N	1.105000	-0.199252	0.545144
C86	C	0.374798	-0.417107	0.416879
N87	N	0.404079	-0.453019	0.452680
H88	H	0.899635	-0.404459	0.940201
C89	C	0.887318	-0.929526	0.235188
N90	N	0.851438	-0.900302	0.199303
H91	H	1.056791	-0.247400	0.940261
C92	C	0.226354	-0.417115	0.416895
N93	N	0.197071	-0.453030	0.452699
H94	H	0.720453	-0.247418	0.247723
H95	H	1.056688	-0.939370	0.404762
H96	H	1.056556	-0.583611	0.404715
H97	H	0.899756	-1.067841	0.247568
H98	H	0.899620	-0.712084	0.247531
C99	C	1.069138	-0.235078	0.722841
N100	N	1.105031	-0.199208	0.752135
H101	H	1.056807	-0.247370	1.068506
