data_functionalizedCrystal
_audit_creation_method	'MofGen! by Chris Wilmer'
_symmetry_space_group_name_H-M	'P1'
_symmetry_Int_Tables_number	1
_symmetry_cell_setting	triclinic
loop_
_symmetry_equiv_pos_as_xyz
  x,y,z
_cell_length_a	21.395355
_cell_length_b	17.077404
_cell_length_c	17.077402
_cell_angle_alpha	90.020853
_cell_angle_beta	89.981955
_cell_angle_gamma	89.976690
loop_
_atom_site_label
_atom_site_type_symbol
_atom_site_fract_x
_atom_site_fract_y
_atom_site_fract_z
Zn1	Zn	-0.354243	1.200093	-0.312642
Zn2	Zn	-0.104243	1.450093	-0.062642
Zn3	Zn	0.145757	1.700093	0.187358
Zn4	Zn	0.395757	1.950093	0.437358
Zn5	Zn	-0.249466	1.199989	-0.443890
Zn6	Zn	0.000534	1.449989	-0.193890
Zn7	Zn	0.250534	1.699989	0.056110
Zn8	Zn	0.500534	1.949989	0.306110
Zn9	Zn	-0.249482	1.068813	-0.312637
Zn10	Zn	0.000518	1.318813	-0.062637
Zn11	Zn	0.250518	1.568813	0.187363
Zn12	Zn	0.500518	1.818813	0.437363
Zn13	Zn	-0.354209	1.068793	-0.443865
Zn14	Zn	-0.104209	1.318793	-0.193865
Zn15	Zn	0.145791	1.568793	0.056135
Zn16	Zn	0.395791	1.818793	0.306135
O17	O	-0.301850	1.134422	-0.378258
O18	O	-0.051850	1.384422	-0.128258
O19	O	0.198150	1.634422	0.121742
O20	O	0.448150	1.884422	0.371742
O21	O	-0.340352	1.309926	-0.330064
O22	O	-0.090352	1.559926	-0.080064
O23	O	0.159648	1.809926	0.169936
O24	O	0.409648	2.059926	0.419936
O25	O	-0.161790	1.182553	-0.426487
O26	O	0.088210	1.432553	-0.176487
O27	O	0.338210	1.682553	0.073513
O28	O	0.588210	1.932553	0.323513
O29	O	-0.263399	1.086280	-0.202791
O30	O	-0.013399	1.336280	0.047209
O31	O	0.236601	1.586280	0.297209
O32	O	0.486601	1.836280	0.547209
O33	O	-0.263373	1.309849	-0.426492
O34	O	-0.013373	1.559849	-0.176492
O35	O	0.236627	1.809849	0.073508
O36	O	0.486627	2.059849	0.323508
O37	O	-0.340367	1.182731	-0.202794
O38	O	-0.090367	1.432731	0.047206
O39	O	0.159633	1.682731	0.297206
O40	O	0.409633	1.932731	0.547206
O41	O	-0.161802	1.086179	-0.330057
O42	O	0.088198	1.336179	-0.080057
O43	O	0.338198	1.586179	0.169943
O44	O	0.588198	1.836179	0.419943
O45	O	-0.263366	0.958964	-0.330032
O46	O	-0.013366	1.208964	-0.080032
O47	O	0.236634	1.458964	0.169968
O48	O	0.486634	1.708964	0.419968
O49	O	-0.441891	1.086245	-0.426449
O50	O	-0.191891	1.336245	-0.176449
O51	O	0.058109	1.586245	0.073551
O52	O	0.308109	1.836245	0.323551
O53	O	-0.340309	0.958949	-0.426445
O54	O	-0.090309	1.208949	-0.176445
O55	O	0.159691	1.458949	0.073555
O56	O	0.409691	1.708949	0.323555
O57	O	-0.441916	1.182711	-0.330040
O58	O	-0.191916	1.432711	-0.080040
O59	O	0.058084	1.682711	0.169960
O60	O	0.308084	1.932711	0.419960
O61	O	-0.263340	1.182533	-0.553733
O62	O	-0.013340	1.432533	-0.303733
O63	O	0.236660	1.682533	-0.053733
O64	O	0.486660	1.932533	0.196267
O65	O	-0.340293	1.086144	-0.553715
O66	O	-0.090293	1.336144	-0.303715
O67	O	0.159707	1.586144	-0.053715
O68	O	0.409707	1.836144	0.196285
C69	C	-0.301836	0.930474	-0.378236
C70	C	-0.051836	1.180474	-0.128236
C71	C	0.198164	1.430474	0.121764
C72	C	0.448164	1.680474	0.371764
C73	C	-0.301845	0.843224	-0.378245
C74	C	-0.051845	1.093224	-0.128245
C75	C	0.198155	1.343224	0.121755
C76	C	0.448155	1.593224	0.371755
C77	C	-0.341989	0.802275	-0.328125
C78	C	-0.091989	1.052275	-0.078125
C79	C	0.158011	1.302275	0.171875
C80	C	0.408011	1.552275	0.421875
C81	C	-0.341992	0.720294	-0.328130
C82	C	-0.091992	0.970294	-0.078130
C83	C	0.158008	1.220294	0.171870
C84	C	0.408008	1.470294	0.421870
C85	C	-0.301853	0.679265	-0.378260
C86	C	-0.051853	0.929265	-0.128260
C87	C	0.198147	1.179265	0.121740
C88	C	0.448147	1.429265	0.371740
C89	C	-0.261705	0.720220	-0.428383
C90	C	-0.011705	0.970220	-0.178383
C91	C	0.238295	1.220220	0.071617
C92	C	0.488295	1.470220	0.321617
C93	C	-0.261699	0.802199	-0.428373
C94	C	-0.011699	1.052199	-0.178373
C95	C	0.238301	1.302199	0.071627
C96	C	0.488301	1.552199	0.321627
C97	C	-0.261720	0.549350	-0.428400
C98	C	-0.011720	0.799350	-0.178400
C99	C	0.238280	1.049350	0.071600
C100	C	0.488280	1.299350	0.321600
C101	C	-0.261726	0.467365	-0.428411
C102	C	-0.011726	0.717365	-0.178411
C103	C	0.238274	0.967365	0.071589
C104	C	0.488274	1.217365	0.321589
C105	C	-0.342013	0.467445	-0.328157
C106	C	-0.092013	0.717445	-0.078157
C107	C	0.157987	0.967445	0.171843
C108	C	0.407987	1.217445	0.421843
C109	C	-0.342007	0.549424	-0.328148
C110	C	-0.092007	0.799424	-0.078148
C111	C	0.157993	1.049424	0.171852
C112	C	0.407993	1.299424	0.421852
C113	C	-0.301859	0.590374	-0.378272
C114	C	-0.051859	0.840374	-0.128272
C115	C	0.198141	1.090374	0.121728
C116	C	0.448141	1.340374	0.371728
C117	C	-0.465273	1.134487	-0.378242
C118	C	-0.215273	1.384487	-0.128242
C119	C	0.034727	1.634487	0.121758
C120	C	0.284727	1.884487	0.371758
C121	C	-0.534914	1.134515	-0.378236
C122	C	-0.284914	1.384515	-0.128236
C123	C	-0.034914	1.634515	0.121764
C124	C	0.215086	1.884515	0.371764
C125	C	-0.567642	1.184742	-0.328033
C126	C	-0.317642	1.434742	-0.078033
C127	C	-0.067642	1.684742	0.171967
C128	C	0.182358	1.934742	0.421967
C129	C	-0.633077	1.184741	-0.328000
C130	C	-0.383077	1.434741	-0.078000
C131	C	-0.133077	1.684741	0.172000
C132	C	0.116923	1.934741	0.422000
C133	C	-0.665783	1.134521	-0.378182
C134	C	-0.415783	1.384521	-0.128182
C135	C	-0.165783	1.634521	0.121818
C136	C	0.084217	1.884521	0.371818
C137	C	-0.633048	1.084284	-0.428388
C138	C	-0.383048	1.334284	-0.178388
C139	C	-0.133048	1.584284	0.071612
C140	C	0.116952	1.834284	0.321612
C141	C	-0.567613	1.084281	-0.428415
C142	C	-0.317613	1.334281	-0.178415
C143	C	-0.067613	1.584281	0.071585
C144	C	0.182387	1.834281	0.321585
C145	C	-0.769449	1.128297	-0.448862
C146	C	-0.519449	1.378297	-0.198862
C147	C	-0.269449	1.628297	0.051138
C148	C	-0.019449	1.878297	0.301138
C149	C	-0.834882	1.128305	-0.448836
C150	C	-0.584882	1.378305	-0.198836
C151	C	-0.334882	1.628305	0.051164
C152	C	-0.084882	1.878305	0.301164
C153	C	-0.867604	1.134526	-0.378099
C154	C	-0.617604	1.384526	-0.128099
C155	C	-0.367604	1.634526	0.121901
C156	C	-0.117604	1.884526	0.371901
C157	C	-0.834884	1.140754	-0.307385
C158	C	-0.584884	1.390754	-0.057385
C159	C	-0.334884	1.640754	0.192615
C160	C	-0.084884	1.890754	0.442615
C161	C	-0.769450	1.140751	-0.307412
C162	C	-0.519450	1.390751	-0.057412
C163	C	-0.269450	1.640751	0.192588
C164	C	-0.019450	1.890751	0.442588
C165	C	-0.736735	1.134518	-0.378158
C166	C	-0.486735	1.384518	-0.128158
C167	C	-0.236735	1.634518	0.121842
C168	C	0.013265	1.884518	0.371842
C169	C	-0.971283	1.184755	-0.327856
C170	C	-0.721283	1.434755	-0.077856
C171	C	-0.471283	1.684755	0.172144
C172	C	-0.221283	1.934755	0.422144
C173	C	-1.036720	1.184748	-0.327821
C174	C	-0.786720	1.434748	-0.077821
C175	C	-0.536720	1.684748	0.172179
C176	C	-0.286720	1.934748	0.422179
C177	C	-1.036689	1.084295	-0.428216
C178	C	-0.786689	1.334295	-0.178216
C179	C	-0.536689	1.584295	0.071784
C180	C	-0.286689	1.834295	0.321784
C181	C	-0.971254	1.084297	-0.428244
C182	C	-0.721254	1.334297	-0.178244
C183	C	-0.471254	1.584297	0.071756
C184	C	-0.221254	1.834297	0.321756
C185	C	-0.938555	1.134531	-0.378065
C186	C	-0.688555	1.384531	-0.128065
C187	C	-0.438555	1.634531	0.121935
C188	C	-0.188555	1.884531	0.371935
C189	C	-0.139062	1.134402	-0.378217
C190	C	0.110938	1.384402	-0.128217
C191	C	0.360938	1.634402	0.121783
C192	C	0.610938	1.884402	0.371783
C193	C	-0.069421	1.134527	-0.378003
C194	C	0.180579	1.384527	-0.128003
C195	C	0.430579	1.634527	0.121997
C196	C	0.680579	1.884527	0.371997
C197	C	-0.301825	1.134346	-0.582206
C198	C	-0.051825	1.384346	-0.332206
C199	C	0.198175	1.634346	-0.082206
C200	C	0.448175	1.884346	0.167794
C201	C	-0.301835	1.134386	-0.669456
C202	C	-0.051835	1.384386	-0.419456
C203	C	0.198165	1.634386	-0.169456
C204	C	0.448165	1.884386	0.080544
C205	C	-0.301864	1.339166	-0.378281
C206	C	-0.051864	1.589166	-0.128281
C207	C	0.198136	1.839166	0.121719
C208	C	0.448136	2.089166	0.371719
C209	C	-0.301870	1.426416	-0.378291
C210	C	-0.051870	1.676416	-0.128291
C211	C	0.198130	1.926416	0.121709
C212	C	0.448130	2.176416	0.371709
C213	C	-0.261808	1.184627	-0.710429
C214	C	-0.011808	1.434627	-0.460429
C215	C	0.238192	1.684627	-0.210429
C216	C	0.488192	1.934627	0.039571
C217	C	-0.261824	1.184665	-0.792410
C218	C	-0.011824	1.434665	-0.542410
C219	C	0.238176	1.684665	-0.292410
C220	C	0.488176	1.934665	-0.042410
C221	C	-0.301864	1.134458	-0.833415
C222	C	-0.051864	1.384458	-0.583415
C223	C	0.198136	1.634458	-0.333415
C224	C	0.448136	1.884458	-0.083415
C225	C	-0.341896	1.084214	-0.792436
C226	C	-0.091896	1.334214	-0.542436
C227	C	0.158104	1.584214	-0.292436
C228	C	0.408104	1.834214	-0.042436
C229	C	-0.341882	1.084181	-0.710457
C230	C	-0.091882	1.334181	-0.460457
C231	C	0.158118	1.584181	-0.210457
C232	C	0.408118	1.834181	0.039543
C233	C	-0.341919	1.084287	-0.963306
C234	C	-0.091919	1.334287	-0.713306
C235	C	0.158081	1.584287	-0.463306
C236	C	0.408081	1.834287	-0.213306
C237	C	-0.341932	1.084320	-1.045291
C238	C	-0.091932	1.334320	-0.795291
C239	C	0.158068	1.584320	-0.545291
C240	C	0.408068	1.834320	-0.295291
C241	C	-0.261861	1.184772	-1.045259
C242	C	-0.011861	1.434772	-0.795259
C243	C	0.238139	1.684772	-0.545259
C244	C	0.488139	1.934772	-0.295259
C245	C	-0.261848	1.184738	-0.963280
C246	C	-0.011848	1.434738	-0.713280
C247	C	0.238152	1.684738	-0.463280
C248	C	0.488152	1.934738	-0.213280
C249	C	-0.301879	1.134493	-0.922306
C250	C	-0.051879	1.384493	-0.672306
C251	C	0.198121	1.634493	-0.422306
C252	C	0.448121	1.884493	-0.172306
C253	C	-0.301889	1.134519	-0.173514
C254	C	-0.051889	1.384519	0.076486
C255	C	0.198111	1.634519	0.326486
C256	C	0.448111	1.884519	0.576486
C257	C	-0.301905	1.134561	-0.086264
C258	C	-0.051905	1.384561	0.163736
C259	C	0.198095	1.634561	0.413736
C260	C	0.448095	1.884561	0.663736
H261	H	-0.374695	0.582828	-0.287332
H262	H	-0.124695	0.832828	-0.037332
H263	H	0.125305	1.082828	0.212668
H264	H	0.375305	1.332828	0.462668
H265	H	-1.063318	1.043396	-0.469068
H266	H	-0.813318	1.293396	-0.219068
H267	H	-0.563318	1.543396	0.030932
H268	H	-0.313318	1.793396	0.280932
H269	H	-0.374682	0.686957	-0.287318
H270	H	-0.124682	0.936957	-0.037318
H271	H	0.125318	1.186957	0.212682
H272	H	0.375318	1.436957	0.462682
F273	F	-0.219187	1.238060	-0.666796
F274	F	0.030813	1.488060	-0.416796
F275	F	0.280813	1.738060	-0.166796
F276	F	0.530813	1.988060	0.083204
H277	H	-0.944607	1.043401	-0.469129
H278	H	-0.694607	1.293401	-0.219129
H279	H	-0.444607	1.543401	0.030871
H280	H	-0.194607	1.793401	0.280871
F281	F	-0.384526	1.030813	-0.919701
F282	F	-0.134526	1.280813	-0.669701
F283	F	0.115474	1.530813	-0.419701
F284	F	0.365474	1.780813	-0.169701
H285	H	-0.229230	1.225576	-0.825767
H286	H	0.020770	1.475576	-0.575767
H287	H	0.270770	1.725576	-0.325767
H288	H	0.520770	1.975576	-0.075767
H289	H	-0.944658	1.225654	-0.286993
H290	H	-0.694658	1.475654	-0.036993
H291	H	-0.444658	1.725654	0.213007
H292	H	-0.194658	1.975654	0.463007
F293	F	-0.384513	1.030784	-0.836079
F294	F	-0.134513	1.280784	-0.586079
F295	F	0.115487	1.530784	-0.336079
F296	F	0.365487	1.780784	-0.086079
H297	H	-0.229026	0.582689	-0.469215
H298	H	0.020974	0.832689	-0.219215
H299	H	0.270974	1.082689	0.030785
H300	H	0.520974	1.332689	0.280785
F301	F	-1.071551	1.238219	-0.274395
F302	F	-0.821551	1.488219	-0.024395
F303	F	-0.571551	1.738219	0.225605
F304	F	-0.321551	1.988219	0.475605
H305	H	-0.374477	1.043270	-0.677097
H306	H	-0.124477	1.293270	-0.427097
H307	H	0.125523	1.543270	-0.177097
H308	H	0.375523	1.793270	0.072903
H309	H	-0.742812	1.123021	-0.506449
H310	H	-0.492812	1.373021	-0.256449
H311	H	-0.242812	1.623021	-0.006449
H312	H	0.007188	1.873021	0.243551
F313	F	-0.384713	0.845934	-0.274772
F314	F	-0.134713	1.095934	-0.024772
F315	F	0.115287	1.345934	0.225228
F316	F	0.365287	1.595934	0.475228
H317	H	-0.229020	0.686807	-0.469196
H318	H	0.020980	0.936807	-0.219196
H319	H	0.270980	1.186807	0.030804
H320	H	0.520980	1.436807	0.280804
F321	F	-0.667915	1.238190	-0.274552
F322	F	-0.417915	1.488190	-0.024552
F323	F	-0.167915	1.738190	0.225448
F324	F	0.082085	1.988190	0.475448
F325	F	-0.532782	1.030819	-0.481849
F326	F	-0.282782	1.280819	-0.231849
F327	F	-0.032782	1.530819	0.018151
F328	F	0.217218	1.780819	0.268151
F329	F	-0.734630	1.147376	-0.232156
F330	F	-0.484630	1.397376	0.017844
F331	F	-0.234630	1.647376	0.267844
F332	F	0.015370	1.897376	0.517844
F333	F	-0.667856	1.030833	-0.481793
F334	F	-0.417856	1.280833	-0.231793
F335	F	-0.167856	1.530833	0.018207
F336	F	0.082144	1.780833	0.268207
F337	F	-0.869698	1.121683	-0.524096
F338	F	-0.619698	1.371683	-0.274096
F339	F	-0.369698	1.621683	-0.024096
F340	F	-0.119698	1.871683	0.225904
H341	H	-0.229009	0.835539	-0.469186
H342	H	0.020991	1.085539	-0.219186
H343	H	0.270991	1.335539	0.030814
H344	H	0.520991	1.585539	0.280814
F345	F	-0.384740	0.423863	-0.274810
F346	F	-0.134740	0.673863	-0.024810
F347	F	0.115260	0.923863	0.225190
F348	F	0.365260	1.173863	0.475190
F349	F	-0.219232	1.238173	-0.919641
F350	F	0.030768	1.488173	-0.669641
F351	F	0.280768	1.738173	-0.419641
F352	F	0.530768	1.988173	-0.169641
F353	F	-0.384541	1.030877	-1.088930
F354	F	-0.134541	1.280877	-0.838930
F355	F	0.115459	1.530877	-0.588930
F356	F	0.365459	1.780877	-0.338930
H357	H	-0.229042	0.433961	-0.469232
H358	H	0.020958	0.683961	-0.219232
H359	H	0.270958	0.933961	0.030768
H360	H	0.520958	1.183961	0.280768
F361	F	-0.219253	1.238240	-1.088867
F362	F	0.030747	1.488240	-0.838867
F363	F	0.280747	1.738240	-0.588867
F364	F	0.530747	1.988240	-0.338867
H365	H	-0.861525	1.145821	-0.249785
H366	H	-0.611525	1.395821	0.000215
H367	H	-0.361525	1.645821	0.250215
H368	H	-0.111525	1.895821	0.500215
F369	F	-0.532845	1.238203	-0.274625
F370	F	-0.282845	1.488203	-0.024625
F371	F	-0.032845	1.738203	0.225375
F372	F	0.217155	1.988203	0.475375
