data_functionalizedCrystal
_audit_creation_method	'MofGen! by Chris Wilmer'
_symmetry_space_group_name_H-M	'P1'
_symmetry_Int_Tables_number	1
_symmetry_cell_setting	triclinic
loop_
_symmetry_equiv_pos_as_xyz
  x,y,z
_cell_length_a	19.077068
_cell_length_b	19.077220
_cell_length_c	19.076919
_cell_angle_alpha	90.116798
_cell_angle_beta	94.470751
_cell_angle_gamma	85.293229
loop_
_atom_site_label
_atom_site_type_symbol
_atom_site_fract_x
_atom_site_fract_y
_atom_site_fract_z
Zn1	Zn	-0.256354	-1.047582	-0.450469
Zn2	Zn	-0.006354	-0.797582	-0.200469
Zn3	Zn	0.243646	-0.547582	0.049531
Zn4	Zn	0.493646	-0.297582	0.299531
Zn5	Zn	-0.369511	-1.047495	-0.337310
Zn6	Zn	-0.119511	-0.797495	-0.087310
Zn7	Zn	0.130489	-0.547495	0.162690
Zn8	Zn	0.380489	-0.297495	0.412690
Zn9	Zn	-0.255980	-0.934813	-0.328226
Zn10	Zn	-0.005980	-0.684813	-0.078226
Zn11	Zn	0.244020	-0.434813	0.171774
Zn12	Zn	0.494020	-0.184813	0.421774
Zn13	Zn	-0.378926	-0.924921	-0.450401
Zn14	Zn	-0.128926	-0.674921	-0.200401
Zn15	Zn	0.121074	-0.424921	0.049599
Zn16	Zn	0.371074	-0.174921	0.299599
O17	O	-0.315193	-0.988702	-0.391601
O18	O	-0.065193	-0.738702	-0.141601
O19	O	0.184807	-0.488702	0.108399
O20	O	0.434807	-0.238702	0.358399
O21	O	-0.267581	-1.146062	-0.439288
O22	O	-0.017581	-0.896062	-0.189288
O23	O	0.232419	-0.646062	0.060712
O24	O	0.482419	-0.396062	0.310712
O25	O	-0.350354	-1.036651	-0.237617
O26	O	-0.100354	-0.786651	0.012383
O27	O	0.149646	-0.536651	0.262383
O28	O	0.399646	-0.286651	0.512383
O29	O	-0.157219	-0.953948	-0.340669
O30	O	0.092781	-0.703948	-0.090669
O31	O	0.342781	-0.453948	0.159331
O32	O	0.592781	-0.203948	0.409331
O33	O	-0.350717	-1.145998	-0.356151
O34	O	-0.100717	-0.895998	-0.106151
O35	O	0.149283	-0.645998	0.143849
O36	O	0.399283	-0.395998	0.393849
O37	O	-0.157494	-1.036799	-0.430480
O38	O	0.092506	-0.786799	-0.180480
O39	O	0.342506	-0.536799	0.069520
O40	O	0.592506	-0.286799	0.319520
O41	O	-0.266943	-0.953864	-0.230943
O42	O	-0.016943	-0.703864	0.019057
O43	O	0.233057	-0.453864	0.269057
O44	O	0.483057	-0.203864	0.519057
O45	O	-0.276072	-0.835009	-0.340603
O46	O	-0.026072	-0.585009	-0.090603
O47	O	0.223928	-0.335009	0.159397
O48	O	0.473928	-0.085009	0.409397
O49	O	-0.366764	-0.937088	-0.548898
O50	O	-0.116764	-0.687088	-0.298898
O51	O	0.133236	-0.437088	-0.048898
O52	O	0.383236	-0.187088	0.201102
O53	O	-0.366401	-0.827741	-0.430364
O54	O	-0.116401	-0.577741	-0.180364
O55	O	0.133599	-0.327741	0.069636
O56	O	0.383599	-0.077741	0.319636
O57	O	-0.276711	-1.027207	-0.548948
O58	O	-0.026711	-0.777207	-0.298948
O59	O	0.223289	-0.527207	-0.048948
O60	O	0.473289	-0.277207	0.201052
O61	O	-0.469570	-1.027058	-0.356085
O62	O	-0.219570	-0.777058	-0.106085
O63	O	0.030430	-0.527058	0.143915
O64	O	0.280430	-0.277058	0.393915
O65	O	-0.476487	-0.937004	-0.439172
O66	O	-0.226487	-0.687004	-0.189172
O67	O	0.023513	-0.437004	0.060828
O68	O	0.273513	-0.187004	0.310828
C69	C	-0.322218	-0.805837	-0.384491
C70	C	-0.072218	-0.555837	-0.134491
C71	C	0.177782	-0.305837	0.115509
C72	C	0.427782	-0.055837	0.365509
C73	C	-0.325241	-0.727605	-0.381466
C74	C	-0.075241	-0.477605	-0.131466
C75	C	0.174759	-0.227605	0.118534
C76	C	0.424759	0.022395	0.368534
C77	C	-0.346899	-0.287238	-0.359809
C78	C	-0.096899	-0.037238	-0.109809
C79	C	0.153101	0.212762	0.140191
C80	C	0.403101	0.462762	0.390191
C81	C	-0.344054	-0.360745	-0.362645
C82	C	-0.094054	-0.110745	-0.112645
C83	C	0.155946	0.139255	0.137355
C84	C	0.405946	0.389255	0.387355
C85	C	-0.299424	-0.397528	-0.407425
C86	C	-0.049424	-0.147528	-0.157425
C87	C	0.200576	0.102472	0.092575
C88	C	0.450576	0.352472	0.342575
C89	C	-0.257631	-0.360800	-0.449365
C90	C	-0.007631	-0.110800	-0.199365
C91	C	0.242369	0.139200	0.050635
C92	C	0.492369	0.389200	0.300635
C93	C	-0.260473	-0.287294	-0.446525
C94	C	-0.010473	-0.037294	-0.196525
C95	C	0.239527	0.212706	0.053475
C96	C	0.489527	0.462706	0.303475
C97	C	-0.286290	-0.617371	-0.420566
C98	C	-0.036290	-0.367371	-0.170566
C99	C	0.213710	-0.117371	0.079434
C100	C	0.463710	0.132629	0.329434
C101	C	-0.283453	-0.690882	-0.423405
C102	C	-0.033453	-0.440882	-0.173405
C103	C	0.216547	-0.190882	0.076595
C104	C	0.466547	0.059118	0.326595
C105	C	-0.369875	-0.690822	-0.336684
C106	C	-0.119875	-0.440822	-0.086684
C107	C	0.130125	-0.190822	0.163316
C108	C	0.380125	0.059178	0.413316
C109	C	-0.372716	-0.617315	-0.333850
C110	C	-0.122716	-0.367315	-0.083850
C111	C	0.127284	-0.117315	0.166150
C112	C	0.377284	0.132685	0.416150
C113	C	-0.330920	-0.580593	-0.375788
C114	C	-0.080920	-0.330593	-0.125788
C115	C	0.169080	-0.080593	0.124212
C116	C	0.419080	0.169407	0.374212
N117	N	-0.296517	-0.472665	-0.410327
N118	N	-0.046517	-0.222665	-0.160327
N119	N	0.203483	0.027335	0.089673
N120	N	0.453483	0.277335	0.339673
N121	N	-0.333824	-0.505458	-0.372882
N122	N	-0.083824	-0.255458	-0.122882
N123	N	0.166176	-0.005458	0.127118
N124	N	0.416176	0.244542	0.377118
C125	C	-0.498649	-0.980967	-0.398623
C126	C	-0.248649	-0.730967	-0.148623
C127	C	0.001351	-0.480967	0.101377
C128	C	0.251351	-0.230967	0.351377
C129	C	-0.577131	-0.977721	-0.401653
C130	C	-0.327131	-0.727721	-0.151653
C131	C	-0.077131	-0.477721	0.098347
C132	C	0.172869	-0.227721	0.348347
C133	C	-0.610377	-1.023116	-0.359856
C134	C	-0.360377	-0.773116	-0.109856
C135	C	-0.110377	-0.523116	0.140144
C136	C	0.139623	-0.273116	0.390144
C137	C	-0.684119	-1.020067	-0.362710
C138	C	-0.434119	-0.770067	-0.112710
C139	C	-0.184119	-0.520067	0.137290
C140	C	0.065881	-0.270067	0.387290
C141	C	-0.724614	-0.971619	-0.407358
C142	C	-0.474614	-0.721619	-0.157358
C143	C	-0.224614	-0.471619	0.092642
C144	C	0.025386	-0.221619	0.342642
C145	C	-0.691363	-0.926222	-0.449160
C146	C	-0.441363	-0.676222	-0.199160
C147	C	-0.191363	-0.426222	0.050840
C148	C	0.058637	-0.176222	0.300840
C149	C	-0.617622	-0.929275	-0.446309
C150	C	-0.367622	-0.679275	-0.196309
C151	C	-0.117622	-0.429275	0.053691
C152	C	0.132378	-0.179275	0.303691
C153	C	-0.945545	-0.957460	-0.420522
C154	C	-0.695545	-0.707460	-0.170522
C155	C	-0.445545	-0.457460	0.079478
C156	C	-0.195545	-0.207460	0.329478
C157	C	-1.019291	-0.954409	-0.423368
C158	C	-0.769291	-0.704409	-0.173368
C159	C	-0.519291	-0.454409	0.076632
C160	C	-0.269291	-0.204409	0.326632
C161	C	-1.012042	-1.048255	-0.336919
C162	C	-0.762042	-0.798255	-0.086919
C163	C	-0.512042	-0.548255	0.163081
C164	C	-0.262042	-0.298255	0.413081
C165	C	-0.938300	-1.051301	-0.334069
C166	C	-0.688300	-0.801301	-0.084069
C167	C	-0.438300	-0.551301	0.165931
C168	C	-0.188300	-0.301301	0.415931
C169	C	-0.905055	-1.005907	-0.375874
C170	C	-0.655055	-0.755907	-0.125874
C171	C	-0.405055	-0.505907	0.124126
C172	C	-0.155055	-0.255907	0.374126
N173	N	-0.799990	-0.968500	-0.410275
N174	N	-0.549990	-0.718500	-0.160275
N175	N	-0.299990	-0.468500	0.089725
N176	N	-0.049990	-0.218500	0.339725
N177	N	-0.829680	-1.009030	-0.372960
N178	N	-0.579680	-0.759030	-0.122960
N179	N	-0.329680	-0.509030	0.127040
N180	N	-0.079680	-0.259030	0.377040
C181	C	-0.131020	-0.996487	-0.384568
C182	C	0.118980	-0.746487	-0.134568
C183	C	0.368980	-0.496487	0.115432
C184	C	0.618980	-0.246487	0.365432
C185	C	-0.052537	-0.999804	-0.381571
C186	C	0.197463	-0.749804	-0.131571
C187	C	0.447463	-0.499804	0.118429
C188	C	0.697463	-0.249804	0.368429
C189	C	-0.322829	-0.981054	-0.575173
C190	C	-0.072829	-0.731054	-0.325173
C191	C	0.177171	-0.481054	-0.075173
C192	C	0.427171	-0.231054	0.174827
C193	C	-0.326084	-0.977794	-0.653401
C194	C	-0.076084	-0.727794	-0.403401
C195	C	0.173916	-0.477794	-0.153401
C196	C	0.423916	-0.227794	0.096599
C197	C	-0.308134	-0.172282	-0.398731
C198	C	-0.058134	0.077718	-0.148731
C199	C	0.191866	0.327718	0.101269
C200	C	0.441866	0.577718	0.351269
C201	C	-0.305110	-0.250515	-0.401748
C202	C	-0.055110	-0.000515	-0.151748
C203	C	0.194890	0.249485	0.098252
C204	C	0.444890	0.499485	0.348252
C205	C	-0.280729	-1.023181	-0.690180
C206	C	-0.030729	-0.773181	-0.440180
C207	C	0.219271	-0.523181	-0.190180
C208	C	0.469271	-0.273181	0.059820
C209	C	-0.283784	-1.020110	-0.763682
C210	C	-0.033784	-0.770110	-0.513682
C211	C	0.216216	-0.520110	-0.263682
C212	C	0.466216	-0.270110	-0.013682
C213	C	-0.332198	-0.971655	-0.800405
C214	C	-0.082198	-0.721655	-0.550405
C215	C	0.167802	-0.471655	-0.300405
C216	C	0.417802	-0.221655	-0.050405
C217	C	-0.377555	-0.926264	-0.763621
C218	C	-0.127555	-0.676264	-0.513621
C219	C	0.122445	-0.426264	-0.263621
C220	C	0.372445	-0.176264	-0.013621
C221	C	-0.374496	-0.929332	-0.690120
C222	C	-0.124496	-0.679332	-0.440120
C223	C	0.125504	-0.429332	-0.190120
C224	C	0.375504	-0.179332	0.059880
C225	C	-0.346372	-0.957445	-1.020228
C226	C	-0.096372	-0.707445	-0.770228
C227	C	0.153628	-0.457445	-0.520228
C228	C	0.403628	-0.207445	-0.270228
C229	C	-0.349430	-0.954382	-1.093735
C230	C	-0.099430	-0.704382	-0.843735
C231	C	0.150570	-0.454382	-0.593735
C232	C	0.400570	-0.204382	-0.343735
C233	C	-0.255657	-1.048227	-1.093791
C234	C	-0.005657	-0.798227	-0.843791
C235	C	0.244343	-0.548227	-0.593791
C236	C	0.494343	-0.298227	-0.343791
C237	C	-0.252605	-1.051293	-1.020288
C238	C	-0.002605	-0.801293	-0.770288
C239	C	0.247395	-0.551293	-0.520288
C240	C	0.497395	-0.301293	-0.270288
C241	C	-0.297960	-1.005900	-0.983510
C242	C	-0.047960	-0.755900	-0.733510
C243	C	0.202040	-0.505900	-0.483510
C244	C	0.452040	-0.255900	-0.233510
N245	N	-0.335324	-0.968517	-0.875537
N246	N	-0.085324	-0.718517	-0.625537
N247	N	0.164676	-0.468517	-0.375537
N248	N	0.414676	-0.218517	-0.125537
N249	N	-0.294830	-1.009036	-0.908380
N250	N	-0.044830	-0.759036	-0.658380
N251	N	0.205170	-0.509036	-0.408380
N252	N	0.455170	-0.259036	-0.158380
C253	C	-0.307533	-0.996364	-0.208743
C254	C	-0.057533	-0.746364	0.041257
C255	C	0.192467	-0.496364	0.291257
C256	C	0.442467	-0.246364	0.541257
C257	C	-0.304075	-0.999768	-0.130514
C258	C	-0.054075	-0.749768	0.119486
C259	C	0.195925	-0.499768	0.369486
C260	C	0.445925	-0.249768	0.619486
H261	H	-0.378082	-0.390642	-0.328493
H262	H	-0.128082	-0.140642	-0.078493
H263	H	0.121918	0.109358	0.171507
H264	H	0.371918	0.359358	0.421507
H265	H	-0.213183	-1.090752	-0.990393
H266	H	0.036817	-0.840752	-0.740393
H267	H	0.286817	-0.590752	-0.490393
H268	H	0.536817	-0.340752	-0.240393
H269	H	-0.221290	-0.390755	-0.485823
H270	H	0.028710	-0.140755	-0.235823
H271	H	0.278710	0.109245	0.014177
H272	H	0.528710	0.359245	0.264177
H273	H	-0.226442	-0.257396	-0.480674
H274	H	0.023558	-0.007396	-0.230674
H275	H	0.273558	0.242604	0.019326
H276	H	0.523558	0.492604	0.269326
H277	H	-0.388856	-0.914922	-1.123633
H278	H	-0.138856	-0.664922	-0.873633
H279	H	0.111144	-0.414922	-0.623633
H280	H	0.361144	-0.164922	-0.373633
H281	H	-0.383245	-0.257294	-0.323348
H282	H	-0.133245	-0.007294	-0.073348
H283	H	0.116755	0.242706	0.176652
H284	H	0.366755	0.492706	0.426652
Cl285	Cl	-0.428803	-0.571080	-0.277533
Cl286	Cl	-0.178803	-0.321080	-0.027533
Cl287	Cl	0.071197	-0.071080	0.222467
Cl288	Cl	0.321197	0.178920	0.472467
H289	H	-1.039118	-1.085214	-0.302886
H290	H	-0.789118	-0.835214	-0.052886
H291	H	-0.539118	-0.585214	0.197114
H292	H	-0.289118	-0.335214	0.447114
Cl293	Cl	-0.198642	-1.105286	-1.140029
Cl294	Cl	0.051358	-0.855286	-0.890029
Cl295	Cl	0.301358	-0.605286	-0.640029
Cl296	Cl	0.551358	-0.355286	-0.390029
H297	H	-0.403903	-0.720729	-0.302540
H298	H	-0.153903	-0.470729	-0.052540
H299	H	0.096097	-0.220729	0.197460
H300	H	0.346097	0.029271	0.447460
H301	H	-0.383313	-0.920492	-0.990293
H302	H	-0.133313	-0.670492	-0.740293
H303	H	0.116687	-0.420492	-0.490293
H304	H	0.366687	-0.170492	-0.240293
H305	H	-0.416973	-0.886809	-0.793527
H306	H	-0.166973	-0.636809	-0.543527
H307	H	0.083027	-0.386809	-0.293527
H308	H	0.333027	-0.136809	-0.043527
H309	H	-0.411422	-0.892367	-0.660175
H310	H	-0.161422	-0.642367	-0.410175
H311	H	0.088578	-0.392367	-0.160175
H312	H	0.338578	-0.142367	0.089825
H313	H	-0.724340	-0.886777	-0.485516
H314	H	-0.474340	-0.636777	-0.235516
H315	H	-0.224340	-0.386777	0.014484
H316	H	0.025660	-0.136777	0.264484
Cl317	Cl	-0.887397	-1.112219	-0.277949
Cl318	Cl	-0.637397	-0.862219	-0.027949
Cl319	Cl	-0.387397	-0.612219	0.222051
Cl320	Cl	-0.137397	-0.362219	0.472051
H321	H	-0.247105	-0.720829	-0.459869
H322	H	0.002895	-0.470829	-0.209869
H323	H	0.252895	-0.220829	0.040131
H324	H	0.502895	0.029171	0.290131
H325	H	-0.252260	-0.587481	-0.454719
H326	H	-0.002260	-0.337481	-0.204719
H327	H	0.247740	-0.087481	0.045281
H328	H	0.497740	0.162519	0.295281
H329	H	-0.577411	-1.062564	-0.323496
H330	H	-0.327411	-0.812564	-0.073496
H331	H	-0.077411	-0.562564	0.176504
H332	H	0.172589	-0.312564	0.426504
Cl333	Cl	-0.219865	-1.084101	-0.644021
Cl334	Cl	0.030135	-0.834101	-0.394021
Cl335	Cl	0.280135	-0.584101	-0.144021
Cl336	Cl	0.530135	-0.334101	0.105979
Cl337	Cl	-1.070198	-0.893490	-0.479492
Cl338	Cl	-0.820198	-0.643490	-0.229492
Cl339	Cl	-0.570198	-0.393490	0.020508
Cl340	Cl	-0.320198	-0.143490	0.270508
Cl341	Cl	-0.725911	-1.077140	-0.310165
Cl342	Cl	-0.475911	-0.827140	-0.060165
Cl343	Cl	-0.225911	-0.577140	0.189835
Cl344	Cl	0.024089	-0.327140	0.439835
Cl345	Cl	-0.575827	-0.872206	-0.498858
Cl346	Cl	-0.325827	-0.622206	-0.248858
Cl347	Cl	-0.075827	-0.372206	0.001142
Cl348	Cl	0.174173	-0.122206	0.251142
Cl349	Cl	-0.903761	-0.900391	-0.473076
Cl350	Cl	-0.653761	-0.650391	-0.223076
Cl351	Cl	-0.403761	-0.400391	0.026924
Cl352	Cl	-0.153761	-0.150391	0.276924
H353	H	-0.246853	-1.057070	-0.793624
H354	H	0.003147	-0.807070	-0.543624
H355	H	0.253147	-0.557070	-0.293624
H356	H	0.503147	-0.307070	-0.043624
