data_functionalizedCrystal
_audit_creation_method	'MofGen! by Chris Wilmer'
_symmetry_space_group_name_H-M	'P1'
_symmetry_Int_Tables_number	1
_symmetry_cell_setting	triclinic
loop_
_symmetry_equiv_pos_as_xyz
  x,y,z
_cell_length_a	17.077404
_cell_length_b	17.077402
_cell_length_c	17.077396
_cell_angle_alpha	89.970216
_cell_angle_beta	89.979055
_cell_angle_gamma	90.016362
loop_
_atom_site_label
_atom_site_type_symbol
_atom_site_fract_x
_atom_site_fract_y
_atom_site_fract_z
Zn1	Zn	-1.200055	0.312645	0.443866
Zn2	Zn	-0.866721	0.645978	0.777199
Zn3	Zn	-0.533388	0.979311	1.110532
Zn4	Zn	-1.199962	0.443920	0.312597
Zn5	Zn	-0.866628	0.777253	0.645930
Zn6	Zn	-0.533295	1.110586	0.979263
Zn7	Zn	-1.068786	0.312657	0.312610
Zn8	Zn	-0.735453	0.645990	0.645944
Zn9	Zn	-0.402120	0.979323	0.979277
Zn10	Zn	-1.068754	0.443858	0.443817
Zn11	Zn	-0.735421	0.777191	0.777150
Zn12	Zn	-0.402088	1.110524	1.110484
O13	O	-1.134389	0.378270	0.378223
O14	O	-0.801056	0.711603	0.711556
O15	O	-0.467723	1.044936	1.044889
O16	O	-1.309889	0.330079	0.426467
O17	O	-0.976556	0.663413	0.759801
O18	O	-0.643223	0.996746	1.093134
O19	O	-1.182536	0.426538	0.202752
O20	O	-0.849202	0.759872	0.536085
O21	O	-0.515869	1.093205	0.869418
O22	O	-1.086252	0.202808	0.330048
O23	O	-0.752918	0.536142	0.663381
O24	O	-0.419585	0.869475	0.996714
O25	O	-1.309821	0.426527	0.330025
O26	O	-0.976488	0.759860	0.663358
O27	O	-0.643154	1.093193	0.996691
O28	O	-1.182694	0.202799	0.426481
O29	O	-0.849361	0.536133	0.759814
O30	O	-0.516027	0.869466	1.093147
O31	O	-1.086162	0.330100	0.202762
O32	O	-0.752828	0.663433	0.536095
O33	O	-0.419495	0.996767	0.869428
O34	O	-0.958935	0.330040	0.330001
O35	O	-0.625602	0.663373	0.663334
O36	O	-0.292269	0.996707	0.996667
O37	O	-1.086197	0.426421	0.553671
O38	O	-0.752864	0.759754	0.887004
O39	O	-0.419530	1.093087	1.220337
O40	O	-0.958912	0.426433	0.426398
O41	O	-0.625578	0.759766	0.759731
O42	O	-0.292245	1.093099	1.093064
O43	O	-1.182663	0.330019	0.553706
O44	O	-0.849330	0.663353	0.887040
O45	O	-0.515996	0.996686	1.220373
O46	O	-1.182504	0.553758	0.329977
O47	O	-0.849171	0.887092	0.663311
O48	O	-0.515838	1.220425	0.996644
O49	O	-1.086107	0.553713	0.426384
O50	O	-0.752774	0.887046	0.759718
O51	O	-0.419440	1.220379	1.093051
C52	C	-0.930441	0.378231	0.378196
C53	C	-0.597108	0.711565	0.711529
C54	C	-0.263775	1.044898	1.044862
C55	C	-0.843192	0.378234	0.378203
C56	C	-0.509858	0.711567	0.711536
C57	C	-0.176525	1.044901	1.044870
C58	C	-1.134314	0.582218	0.378191
C59	C	-0.800980	0.915551	0.711525
C60	C	-0.467647	1.248884	1.044858
C61	C	-1.134353	0.669467	0.378204
C62	C	-0.801020	1.002801	0.711537
C63	C	-0.467686	1.336134	1.044871
C64	C	-0.467386	0.428551	0.428346
C65	C	-0.134052	0.761885	0.761680
C66	C	0.199281	1.095218	1.095013
C67	C	-0.549366	0.428544	0.428336
C68	C	-0.216033	0.761877	0.761669
C69	C	0.117301	1.095211	1.095003
C70	C	-0.590343	0.378272	0.378224
C71	C	-0.257009	0.711606	0.711557
C72	C	0.076324	1.044939	1.044891
C73	C	-0.549335	0.328011	0.328113
C74	C	-0.216001	0.661344	0.661447
C75	C	0.117332	0.994677	0.994780
C76	C	-0.467356	0.328023	0.328120
C77	C	-0.134022	0.661356	0.661453
C78	C	0.199311	0.994689	0.994787
C79	C	-0.720205	0.327988	0.328104
C80	C	-0.386871	0.661321	0.661437
C81	C	-0.053538	0.994654	0.994770
C82	C	-0.802189	0.327974	0.328098
C83	C	-0.468856	0.661308	0.661431
C84	C	-0.135523	0.994641	0.994764
C85	C	-0.802215	0.428509	0.428320
C86	C	-0.468882	0.761842	0.761653
C87	C	-0.135548	1.095176	1.094986
C88	C	-0.720236	0.428521	0.428327
C89	C	-0.386903	0.761854	0.761660
C90	C	-0.053569	1.095188	1.094993
C91	C	-0.679234	0.378258	0.378217
C92	C	-0.345900	0.711591	0.711550
C93	C	-0.012567	1.044925	1.044883
C94	C	-0.339134	0.378300	0.378245
C95	C	-0.005800	0.711634	0.711578
C96	C	0.327533	1.044967	1.044911
C97	C	-0.426383	0.378292	0.378241
C98	C	-0.093050	0.711625	0.711574
C99	C	0.240283	1.044959	1.044908
C100	C	-1.134437	0.378212	0.582967
C101	C	-0.801103	0.711545	0.916300
C102	C	-0.467770	1.044878	1.249634
C103	C	-1.134457	0.378187	0.670217
C104	C	-0.801124	0.711521	1.003550
C105	C	-0.467790	1.044854	1.336883
C106	C	-1.134487	0.173525	0.378271
C107	C	-0.801153	0.506859	0.711604
C108	C	-0.467820	0.840192	1.044938
C109	C	-1.134528	0.086276	0.378292
C110	C	-0.801195	0.419609	0.711625
C111	C	-0.467862	0.752942	1.044959
C112	C	-1.184598	0.710455	0.328059
C113	C	-0.851265	1.043788	0.661392
C114	C	-0.517932	1.377122	0.994725
C115	C	-1.184637	0.792436	0.328079
C116	C	-0.851303	1.125769	0.661412
C117	C	-0.517970	1.459102	0.994746
C118	C	-1.134425	0.833427	0.378241
C119	C	-0.801092	1.166760	0.711574
C120	C	-0.467758	1.500093	1.044907
C121	C	-1.084178	0.792433	0.428391
C122	C	-0.750844	1.125766	0.761725
C123	C	-0.417511	1.459100	1.095058
C124	C	-1.084144	0.710454	0.428375
C125	C	-0.750810	1.043788	0.761708
C126	C	-0.417477	1.377121	1.095041
C127	C	-1.084250	0.963303	0.428421
C128	C	-0.750917	1.296636	0.761755
C129	C	-0.417584	1.629970	1.095088
C130	C	-1.084283	1.045288	0.428437
C131	C	-0.750950	1.378621	0.761770
C132	C	-0.417616	1.711954	1.095104
C133	C	-1.184743	1.045285	0.328125
C134	C	-0.851410	1.378618	0.661459
C135	C	-0.518077	1.711951	0.994792
C136	C	-1.184709	0.963306	0.328109
C137	C	-0.851376	1.296639	0.661442
C138	C	-0.518043	1.629972	0.994775
C139	C	-1.134461	0.922318	0.378259
C140	C	-0.801127	1.255651	0.711592
C141	C	-0.467794	1.588984	1.044925
C142	C	-1.134387	0.378271	0.174275
C143	C	-0.801054	0.711604	0.507608
C144	C	-0.467720	1.044937	0.840941
C145	C	-1.134519	0.378074	0.087025
C146	C	-0.801186	0.711407	0.420359
C147	C	-0.467852	1.044741	0.753692
C148	C	-1.184689	0.327987	0.711227
C149	C	-0.851355	0.661320	1.044560
C150	C	-0.518022	0.994653	1.377893
C151	C	-1.184698	0.327961	0.793207
C152	C	-0.851365	0.661294	1.126541
C153	C	-0.518031	0.994627	1.459874
C154	C	-1.134479	0.378139	0.834176
C155	C	-0.801146	0.711473	1.167510
C156	C	-0.467813	1.044806	1.500843
C157	C	-1.084242	0.428342	0.793160
C158	C	-0.750909	0.761675	1.126494
C159	C	-0.417576	1.095009	1.459827
C160	C	-1.084229	0.428364	0.711181
C161	C	-0.750896	0.761697	1.044515
C162	C	-0.417563	1.095030	1.377848
C163	C	-1.084274	0.428295	0.964031
C164	C	-0.750941	0.761628	1.297364
C165	C	-0.417607	1.094962	1.630697
C166	C	-1.084288	0.428275	1.046015
C167	C	-0.750954	0.761608	1.379349
C168	C	-0.417621	1.094941	1.712682
C169	C	-1.184742	0.327892	1.046056
C170	C	-0.851409	0.661225	1.379390
C171	C	-0.518076	0.994558	1.712723
C172	C	-1.184730	0.327913	0.964077
C173	C	-0.851396	0.661247	1.297411
C174	C	-0.518063	0.994580	1.630744
C175	C	-1.134493	0.378117	0.923067
C176	C	-0.801160	0.711451	1.256401
C177	C	-0.467827	1.044784	1.589734
H178	H	-0.434028	0.469484	0.469158
H179	H	-0.100695	0.802817	0.802491
H180	H	0.232639	1.136151	1.135825
H181	H	-1.225483	0.677086	0.287208
H182	H	-0.892150	1.010419	0.620541
H183	H	-0.558816	1.343752	0.953875
C184	C	-1.239933	0.272784	0.666169
C185	C	-0.906600	0.606118	0.999502
C186	C	-0.573267	0.939451	1.332835
N187	N	-1.281543	0.231201	0.632233
N188	N	-0.948209	0.564535	0.965566
N189	N	-0.614876	0.897868	1.298900
C190	C	-1.028993	0.483532	0.838229
C191	C	-0.695660	0.816865	1.171563
C192	C	-0.362327	1.150198	1.504896
N193	N	-0.987378	0.525102	0.872174
N194	N	-0.654045	0.858435	1.205508
N195	N	-0.320712	1.191768	1.538841
H196	H	-1.225626	0.287058	0.930723
H197	H	-0.892293	0.620391	1.264056
H198	H	-0.558960	0.953724	1.597389
C199	C	-1.029040	0.483469	1.091080
C200	C	-0.695706	0.816802	1.424413
C201	C	-0.362373	1.150136	1.757746
N202	N	-0.987425	0.525041	1.125022
N203	N	-0.654091	0.858374	1.458355
N204	N	-0.320758	1.191708	1.791689
C205	C	-1.239932	0.918217	0.272916
C206	C	-0.906599	1.251550	0.606249
C207	C	-0.573265	1.584884	0.939582
N208	N	-1.281525	0.884256	0.231341
N209	N	-0.948191	1.217590	0.564674
N210	N	-0.614858	1.550923	0.898008
C211	C	-1.240002	0.272666	1.091169
C212	C	-0.906669	0.606000	1.424502
C213	C	-0.573336	0.939333	1.757836
N214	N	-1.281625	0.231075	1.125152
N215	N	-0.948292	0.564408	1.458485
N216	N	-0.614958	0.897741	1.791818
C217	C	-0.594412	0.272705	0.272995
C218	C	-0.261079	0.606039	0.606328
C219	C	0.072255	0.939372	0.939662
N220	N	-0.628364	0.231044	0.231484
N221	N	-0.295030	0.564377	0.564817
N222	N	0.038303	0.897710	0.898150
H223	H	-1.225551	0.825804	0.287245
H224	H	-0.892218	1.159138	0.620578
H225	H	-0.558884	1.492471	0.953912
C226	C	-1.028942	0.837526	0.483568
C227	C	-0.695608	1.170860	0.816901
C228	C	-0.362275	1.504193	1.150234
N229	N	-0.987333	0.871490	0.525124
N230	N	-0.654000	1.204823	0.858457
N231	N	-0.320667	1.538156	1.191791
H232	H	-0.582746	0.469472	0.469135
H233	H	-0.249413	0.802805	0.802468
H234	H	0.083920	1.136139	1.135802
C235	C	-0.422254	0.272731	0.273002
C236	C	-0.088920	0.606065	0.606336
C237	C	0.244413	0.939398	0.939669
N238	N	-0.388284	0.231085	0.231485
N239	N	-0.054951	0.564419	0.564818
N240	N	0.278383	0.897752	0.898151
C241	C	-1.240024	1.090373	0.272966
C242	C	-0.906691	1.423706	0.606300
C243	C	-0.573358	1.757039	0.939633
N244	N	-1.281660	1.124337	0.231422
N245	N	-0.948327	1.457670	0.564755
N246	N	-0.614993	1.791003	0.898089
H247	H	-1.043411	1.078661	0.469298
H248	H	-0.710078	1.411994	0.802631
H249	H	-0.376744	1.745327	1.135965
C250	C	-0.675163	0.483829	0.483446
C251	C	-0.341830	0.817162	0.816779
C252	C	-0.008497	1.150496	1.150112
N253	N	-0.641214	0.525493	0.524958
N254	N	-0.307881	0.858826	0.858291
N255	N	0.025452	1.192159	1.191624
C256	C	-1.028870	0.665368	0.483539
C257	C	-0.695537	0.998701	0.816872
C258	C	-0.362204	1.332035	1.150206
N259	N	-0.987238	0.631410	0.525092
N260	N	-0.653905	0.964743	0.858426
N261	N	-0.320572	1.298077	1.191759
C262	C	-1.239958	0.272737	0.838315
C263	C	-0.906625	0.606071	1.171648
C264	C	-0.573291	0.939404	1.504981
N265	N	-1.281582	0.231141	0.872289
N266	N	-0.948249	0.564474	1.205622
N267	N	-0.614916	0.897807	1.538956
H268	H	-1.043335	0.929933	0.469261
H269	H	-0.710002	1.263267	0.802595
H270	H	-0.376668	1.596600	1.135928
H271	H	-0.835603	0.469433	0.469123
H272	H	-0.502270	0.802766	0.802456
H273	H	-0.168936	1.136100	1.135790
H274	H	-1.043354	0.469164	0.930643
H275	H	-0.710021	0.802497	1.263976
H276	H	-0.376687	1.135831	1.597309
C277	C	-1.028972	0.483589	0.666071
C278	C	-0.695639	0.816923	0.999404
C279	C	-0.362306	1.150256	1.332738
N280	N	-0.987349	0.525186	0.632095
N281	N	-0.654016	0.858519	0.965428
N282	N	-0.320683	1.191853	1.298761
H283	H	-0.686823	0.287057	0.287300
H284	H	-0.353490	0.620390	0.620634
H285	H	-0.020157	0.953723	0.953967
C286	C	-0.847262	0.272680	0.272965
C287	C	-0.513929	0.606013	0.606298
C288	C	-0.180596	0.939347	0.939632
N289	N	-0.881211	0.231033	0.231436
N290	N	-0.547878	0.564366	0.564770
N291	N	-0.214544	0.897700	0.898103
