data_functionalizedCrystal
_audit_creation_method	'MofGen! by Chris Wilmer'
_symmetry_space_group_name_H-M	'P1'
_symmetry_Int_Tables_number	1
_symmetry_cell_setting	triclinic
loop_
_symmetry_equiv_pos_as_xyz
  x,y,z
_cell_length_a	16.959455
_cell_length_b	12.759399
_cell_length_c	12.759393
_cell_angle_alpha	90.026805
_cell_angle_beta	89.978381
_cell_angle_gamma	89.988803
loop_
_atom_site_label
_atom_site_type_symbol
_atom_site_fract_x
_atom_site_fract_y
_atom_site_fract_z
Zn1	Zn	1.208473	0.418301	-0.594066
Zn2	Zn	1.708473	0.918301	-0.094066
Zn3	Zn	1.208392	0.594017	-0.418398
Zn4	Zn	1.708392	1.094017	0.081602
Zn5	Zn	1.076284	0.418343	-0.418399
Zn6	Zn	1.576284	0.918343	0.081601
Zn7	Zn	1.076279	0.593929	-0.594033
Zn8	Zn	1.576279	1.093929	-0.094033
O9	O	1.142357	0.506147	-0.506224
O10	O	1.642357	1.006147	-0.006224
O11	O	1.319073	0.441629	-0.570777
O12	O	1.819073	0.941629	-0.070777
O13	O	1.190836	0.570767	-0.271377
O14	O	1.690836	1.070767	0.228623
O15	O	1.093855	0.271316	-0.441716
O16	O	1.593855	0.771316	0.058284
O17	O	1.319013	0.570727	-0.441714
O18	O	1.819013	1.070727	0.058286
O19	O	1.190974	0.271286	-0.570778
O20	O	1.690974	0.771286	-0.070778
O21	O	1.093777	0.441700	-0.271378
O22	O	1.593777	0.941700	0.228622
O23	O	0.965673	0.441616	-0.441684
O24	O	1.465673	0.941616	0.058316
O25	O	1.093847	0.570578	-0.741058
O26	O	1.593847	1.070578	-0.241058
O27	O	0.965669	0.570618	-0.570721
O28	O	1.465669	1.070618	-0.070721
O29	O	1.190969	0.441544	-0.741083
O30	O	1.690969	0.941544	-0.241083
O31	O	1.190831	0.741026	-0.441681
O32	O	1.690831	1.241026	0.058319
O33	O	1.093768	0.740962	-0.570720
O34	O	1.593768	1.240962	-0.070720
C35	C	0.936991	0.506113	-0.506200
C36	C	1.436991	1.006113	-0.006200
C37	C	0.849134	0.506123	-0.506214
C38	C	1.349134	1.006123	-0.006214
C39	C	1.142312	0.779115	-0.506220
C40	C	1.642312	1.279115	-0.006220
C41	C	1.142365	0.895891	-0.506253
C42	C	1.642365	1.395891	-0.006253
C43	C	1.142416	0.506047	-0.780257
C44	C	1.642416	1.006047	-0.280257
C45	C	1.142441	0.506004	-0.897034
C46	C	1.642441	1.006004	-0.397034
C47	C	0.477636	0.438921	-0.439174
C48	C	0.977636	0.938921	0.060826
C49	C	0.477681	0.573461	-0.573333
C50	C	0.977681	1.073461	-0.073333
C51	C	0.560227	0.573445	-0.573327
C52	C	1.060227	1.073445	-0.073327
C53	C	0.601481	0.506168	-0.506242
C54	C	1.101481	1.006168	-0.006242
C55	C	0.560190	0.438906	-0.439164
C56	C	1.060190	0.938906	0.060836
C57	C	0.601525	0.640714	-0.640396
C58	C	1.101525	1.140714	-0.140396
C59	C	0.684076	0.640702	-0.640392
C60	C	1.184076	1.140702	-0.140392
C61	C	0.725331	0.573419	-0.573312
C62	C	1.225331	1.073419	-0.073312
C63	C	0.684035	0.506153	-0.506231
C64	C	1.184035	1.006153	-0.006231
C65	C	0.725289	0.438876	-0.439147
C66	C	1.225289	0.938876	0.060853
C67	C	0.683994	0.371604	-0.372071
C68	C	1.183994	0.871604	0.127929
C69	C	0.601445	0.371622	-0.372084
C70	C	1.101445	0.871622	0.127916
C71	C	0.807880	0.573401	-0.573299
C72	C	1.307880	1.073401	-0.073299
C73	C	0.807843	0.438861	-0.439136
C74	C	1.307843	0.938861	0.060864
C75	C	1.348525	0.506183	-0.506249
C76	C	1.848525	1.006183	-0.006249
C77	C	1.436382	0.506198	-0.506259
C78	C	1.936382	1.006198	-0.006259
C79	C	1.192963	0.950752	-0.439143
C80	C	1.692963	1.450752	0.060857
C81	C	1.193015	1.060476	-0.439186
C82	C	1.693015	1.560476	0.060814
C83	C	1.091863	1.060469	-0.573452
C84	C	1.591863	1.560469	-0.073452
C85	C	1.091816	0.950747	-0.573413
C86	C	1.591816	1.450747	-0.073413
C87	C	1.142427	1.232114	-0.506269
C88	C	1.642427	1.732114	-0.006269
C89	C	1.142464	1.115337	-0.506335
C90	C	1.642464	1.615337	-0.006335
C91	C	1.193017	0.438805	-0.951911
C92	C	1.693017	0.938805	-0.451911
C93	C	1.193030	0.438760	-1.061635
C94	C	1.693030	0.938760	-0.561635
C95	C	1.091891	0.573120	-1.061596
C96	C	1.591891	1.073120	-0.561596
C97	C	1.091874	0.573160	-0.951874
C98	C	1.591874	1.073160	-0.451874
C99	C	1.142344	0.506172	-0.233256
C100	C	1.642344	1.006172	0.266744
C101	C	1.142471	0.505919	-0.116480
C102	C	1.642471	1.005919	0.383520
H103	H	0.841426	0.384068	-0.384513
H104	H	1.341426	0.884068	0.115487
Cl105	Cl	1.028205	0.881774	-0.657793
Cl106	Cl	1.528205	1.381774	-0.157793
H107	H	0.444087	0.628241	-0.627944
H108	H	0.944087	1.128241	-0.127944
Cl109	Cl	0.549659	0.725318	-0.724692
Cl110	Cl	1.049659	1.225318	-0.224692
H111	H	1.234212	0.384039	-1.106310
H112	H	1.734212	0.884039	-0.606310
H113	H	1.234219	1.105138	-0.384540
H114	H	1.734219	1.605138	0.115460
H115	H	1.050707	1.105146	-0.628130
H116	H	1.550707	1.605146	-0.128130
Cl117	Cl	1.256584	0.354377	-0.882972
Cl118	Cl	1.756584	0.854377	-0.382972
Cl119	Cl	1.028284	0.657639	-0.882881
Cl120	Cl	1.528284	1.157639	-0.382881
Cl121	Cl	0.735866	0.287037	-0.287733
Cl122	Cl	1.235866	0.787037	0.212267
Cl123	Cl	0.549527	0.287062	-0.287767
Cl124	Cl	1.049527	0.787062	0.212233
Cl125	Cl	1.256512	0.881794	-0.354716
Cl126	Cl	1.756512	1.381794	0.145284
H127	H	0.717691	0.695479	-0.695010
H128	H	1.217691	1.195479	-0.195010
H129	H	1.050722	0.627799	-1.106260
H130	H	1.550722	1.127799	-0.606260
Cl131	Cl	0.425725	0.354349	-0.354861
Cl132	Cl	0.925725	0.854349	0.145139
Cl133	Cl	0.859790	0.657970	-0.657609
Cl134	Cl	1.359790	1.157970	-0.157609
