data_functionalizedCrystal
_audit_creation_method	'MofGen! by Chris Wilmer'
_symmetry_space_group_name_H-M	'P1'
_symmetry_Int_Tables_number	1
_symmetry_cell_setting	triclinic
loop_
_symmetry_equiv_pos_as_xyz
  x,y,z
_cell_length_a	12.759401
_cell_length_b	13.897448
_cell_length_c	12.759393
_cell_angle_alpha	89.966603
_cell_angle_beta	89.980163
_cell_angle_gamma	90.019217
loop_
_atom_site_label
_atom_site_type_symbol
_atom_site_fract_x
_atom_site_fract_y
_atom_site_fract_z
Zn1	Zn	1.606233	-0.383918	-0.594007
Zn2	Zn	1.606118	-0.545248	-0.418322
Zn3	Zn	1.430535	-0.383973	-0.418342
Zn4	Zn	1.430515	-0.545177	-0.593959
O5	O	1.518350	-0.464579	-0.506158
O6	O	1.753239	-0.405326	-0.570714
O7	O	1.582788	-0.523907	-0.271303
O8	O	1.453899	-0.248984	-0.441673
O9	O	1.753155	-0.523854	-0.441638
O10	O	1.582983	-0.248944	-0.570734
O11	O	1.453787	-0.405419	-0.271318
O12	O	1.283511	-0.405350	-0.441627
O13	O	1.453863	-0.523734	-0.740987
O14	O	1.283496	-0.523786	-0.570652
O15	O	1.582963	-0.405257	-0.741022
O16	O	1.582768	-0.680220	-0.441592
O17	O	1.453752	-0.680168	-0.570632
C18	C	1.245383	-0.464567	-0.506137
C19	C	1.128606	-0.464585	-0.506153
C20	C	1.518274	-0.715193	-0.506127
C21	C	1.518337	-0.822407	-0.506149
C22	C	1.073764	-0.526349	-0.573230
C23	C	0.964040	-0.526353	-0.573251
C24	C	0.964010	-0.402826	-0.439108
C25	C	1.073732	-0.402819	-0.439093
C26	C	1.518447	-1.018702	-0.506215
C27	C	1.518383	-0.909470	-0.506182
C28	C	1.792384	-0.464592	-0.506179
C29	C	1.909160	-0.464597	-0.506188
C30	C	1.518424	-0.464481	-0.780191
C31	C	1.518455	-0.464440	-0.896968
C32	C	1.518456	-0.212986	-0.506211
C33	C	1.518501	-0.105772	-0.506234
C34	C	1.451309	-0.402732	-0.951837
C35	C	1.451333	-0.402702	-1.061561
C36	C	1.585659	-0.526091	-1.061537
C37	C	1.585629	-0.526125	-0.951815
C38	C	1.518338	-0.464607	-0.233190
C39	C	1.518510	-0.464376	-0.116414
H40	H	1.118439	-0.576641	-0.627837
H41	H	1.640350	-0.576312	-1.106207
H42	H	1.396655	-0.352454	-1.106231
H43	H	1.640310	-0.576379	-0.907139
H44	H	1.396611	-0.352504	-0.907184
H45	H	0.919392	-0.576645	-0.627874
H46	H	1.118386	-0.352517	-0.384470
H47	H	0.919318	-0.352540	-0.384509
