data_functionalizedCrystal
_audit_creation_method	'MofGen! by Chris Wilmer'
_symmetry_space_group_name_H-M	'P1'
_symmetry_Int_Tables_number	1
_symmetry_cell_setting	triclinic
loop_
_symmetry_equiv_pos_as_xyz
  x,y,z
_cell_length_a	12.759401
_cell_length_b	15.299816
_cell_length_c	12.759393
_cell_angle_alpha	80.349878
_cell_angle_beta	90.021189
_cell_angle_gamma	80.350722
loop_
_atom_site_label
_atom_site_type_symbol
_atom_site_fract_x
_atom_site_fract_y
_atom_site_fract_z
Zn1	Zn	1.678545	-0.359003	0.666476
Zn2	Zn	2.178545	0.140997	1.166476
Zn3	Zn	1.708813	-0.509846	0.521225
Zn4	Zn	2.208813	-0.009846	1.021225
Zn5	Zn	1.502856	-0.359049	0.490817
Zn6	Zn	2.002856	0.140951	0.990817
Zn7	Zn	1.533195	-0.509776	0.696844
Zn8	Zn	2.033195	-0.009776	1.196844
O9	O	1.605852	-0.434419	0.593840
O10	O	2.105852	0.065581	1.093840
O11	O	1.829583	-0.379022	0.647225
O12	O	2.329583	0.120978	1.147225
O13	O	1.681463	-0.489891	0.370180
O14	O	2.181463	0.010109	0.870180
O15	O	1.500797	-0.232835	0.488683
O16	O	2.000797	0.267165	0.988683
O17	O	1.851821	-0.489846	0.540510
O18	O	2.351821	0.010154	1.040510
O19	O	1.629875	-0.232801	0.617739
O20	O	2.129875	0.267199	1.117739
O21	O	1.530147	-0.379102	0.347839
O22	O	2.030147	0.120898	0.847839
O23	O	1.359858	-0.379034	0.518130
O24	O	1.859858	0.120966	1.018130
O25	O	1.552506	-0.489727	0.839827
O26	O	2.052506	0.010273	1.339827
O27	O	1.382148	-0.489772	0.669497
O28	O	1.882148	0.010228	1.169497
O29	O	1.659294	-0.378954	0.817516
O30	O	2.159294	0.121046	1.317516
O31	O	1.710882	-0.636045	0.569956
O32	O	2.210882	-0.136045	1.069956
O33	O	1.581856	-0.635993	0.698983
O34	O	2.081856	-0.135993	1.198983
C35	C	1.332882	-0.434401	0.593810
C36	C	1.832882	0.065599	1.093810
C37	C	1.216108	-0.434415	0.593826
C38	C	1.716108	0.065585	1.093826
C39	C	1.063077	-0.492049	0.538190
C40	C	1.563077	0.007951	1.038190
C41	C	1.172797	-0.492033	0.538157
C42	C	1.672797	0.007967	1.038157
C43	C	1.149690	-0.376804	0.649522
C44	C	1.649690	0.123196	1.149522
C45	C	1.039970	-0.376817	0.649548
C46	C	1.539970	0.123183	1.149548
C47	C	1.076419	-0.558578	0.473899
C48	C	1.576419	-0.058578	0.973899
C49	C	1.186140	-0.558562	0.473865
C50	C	1.686140	-0.058562	0.973865
C51	C	1.652974	-0.668743	0.641087
C52	C	2.152974	-0.168743	1.141087
C53	C	1.673229	-0.768989	0.661335
C54	C	2.173229	-0.268989	1.161335
C55	C	1.461776	-1.051933	0.449485
C56	C	1.961776	-0.551933	0.949485
C57	C	1.442740	-0.957748	0.430464
C58	C	1.942740	-0.457748	0.930464
C59	C	1.500361	-0.910553	0.488180
C60	C	2.000361	-0.410553	0.988180
C61	C	1.577021	-0.957554	0.564920
C62	C	2.077021	-0.457554	1.064920
C63	C	1.596052	-1.051748	0.583949
C64	C	2.096052	-0.551748	1.083949
C65	C	1.634637	-0.910368	0.622644
C66	C	2.134637	-0.410368	1.122644
C67	C	1.711297	-0.957369	0.699384
C68	C	2.211297	-0.457369	1.199384
C69	C	1.730326	-1.051554	0.718409
C70	C	2.230326	-0.551554	1.218409
C71	C	1.672705	-1.098748	0.660693
C72	C	2.172705	-0.598748	1.160693
C73	C	1.615605	-0.816174	0.603615
C74	C	2.115605	-0.316174	1.103615
C75	C	1.749882	-0.815989	0.738079
C76	C	2.249882	-0.315989	1.238079
C77	C	1.768918	-0.910174	0.757100
C78	C	2.268918	-0.410174	1.257100
C79	C	1.879889	-0.434437	0.593872
C80	C	2.379889	0.065563	1.093872
C81	C	1.996668	-0.434445	0.593885
C82	C	2.496668	0.065555	1.093885
C83	C	1.605908	-0.434328	0.867855
C84	C	2.105908	0.065672	1.367855
C85	C	1.605931	-0.434289	0.984624
C86	C	2.105931	0.065711	1.484624
C87	C	1.558575	-0.199179	0.546432
C88	C	2.058575	0.300821	1.046432
C89	C	1.538429	-0.098933	0.526229
C90	C	2.038429	0.401067	1.026229
C91	C	1.605845	-0.434444	0.320878
C92	C	2.105845	0.065556	0.820878
C93	C	1.605974	-0.434229	0.204059
C94	C	2.105974	0.065771	0.704059
C95	C	1.661544	-0.376604	1.027870
C96	C	2.161544	0.123396	1.527870
C97	C	1.661562	-0.376571	1.137587
C98	C	2.161562	0.123429	1.637587
C99	C	1.550354	-0.491916	1.160806
C100	C	2.050354	0.008084	1.660806
C101	C	1.550330	-0.491943	1.051089
C102	C	2.050330	0.008057	1.551089
C103	C	1.725753	-0.310013	1.014466
C104	C	2.225753	0.189987	1.514466
C105	C	1.725771	-0.309981	1.124183
C106	C	2.225771	0.190019	1.624183
H107	H	0.985902	-0.329903	0.694891
H108	H	1.485902	0.170097	1.194891
Cl109	Cl	1.024530	-0.529578	0.342491
Cl110	Cl	1.524530	-0.029578	0.842491
Cl111	Cl	1.476061	-0.792149	0.464633
Cl112	Cl	1.976061	-0.292149	0.964633
H113	H	1.689919	-0.240167	0.970619
H114	H	2.189919	0.259833	1.470619
Cl115	Cl	1.480395	-0.564450	0.996725
Cl116	Cl	1.980395	-0.064450	1.496725
Cl117	Cl	1.480460	-0.564392	1.244369
Cl118	Cl	1.980460	-0.064392	1.744369
Cl119	Cl	1.044516	-0.661066	0.539383
Cl120	Cl	1.544516	-0.161066	1.039383
Cl121	Cl	1.346362	-0.898669	0.334006
Cl122	Cl	1.846362	-0.398669	0.834006
H123	H	1.215074	-0.533464	0.391546
H124	H	1.715074	-0.033464	0.891546
Cl125	Cl	1.204136	-0.304363	0.719496
Cl126	Cl	1.704136	0.195637	1.219496
Cl127	Cl	1.660050	-0.207572	1.156099
Cl128	Cl	2.160050	0.292428	1.656099
H129	H	1.810909	-0.328688	1.157739
H130	H	2.310909	0.171312	1.657739
Cl131	Cl	1.253850	-0.666429	0.529050
Cl132	Cl	1.753850	-0.166429	1.029050
Cl133	Cl	1.519238	-0.757100	0.507143
Cl134	Cl	2.019238	-0.257100	1.007143
H135	H	1.414865	-1.090367	0.402506
H136	H	1.914865	-0.590367	0.902506
Cl137	Cl	1.696853	-1.217158	0.684383
Cl138	Cl	2.196853	-0.717158	1.184383
Cl139	Cl	1.826678	-1.110638	0.814904
Cl140	Cl	2.326678	-0.610638	1.314904
H141	H	1.831334	-0.948455	0.819584
H142	H	2.331334	-0.448455	1.319584
H143	H	1.808066	-0.335053	0.985484
H144	H	2.308066	0.164947	1.485484
H145	H	1.796800	-0.777564	0.785078
H146	H	2.296800	-0.277564	1.285078
