data_functionalizedCrystal
_audit_creation_method	'MofGen! by Chris Wilmer'
_symmetry_space_group_name_H-M	'P1'
_symmetry_Int_Tables_number	1
_symmetry_cell_setting	triclinic
loop_
_symmetry_equiv_pos_as_xyz
  x,y,z
_cell_length_a	18.215407
_cell_length_b	12.759394
_cell_length_c	18.215399
_cell_angle_alpha	89.974724
_cell_angle_beta	89.980167
_cell_angle_gamma	90.015285
loop_
_atom_site_label
_atom_site_type_symbol
_atom_site_fract_x
_atom_site_fract_y
_atom_site_fract_z
Zn1	Zn	1.125123	-0.418265	-0.416130
Zn2	Zn	1.458457	-0.084931	-0.082796
Zn3	Zn	1.791790	0.248402	0.250537
Zn4	Zn	1.125053	-0.593962	-0.293069
Zn5	Zn	1.458387	-0.260629	0.040264
Zn6	Zn	1.791720	0.072705	0.373598
Zn7	Zn	1.002056	-0.418299	-0.293077
Zn8	Zn	1.335389	-0.084966	0.040256
Zn9	Zn	1.668723	0.248368	0.373590
Zn10	Zn	1.002043	-0.593904	-0.416094
Zn11	Zn	1.335377	-0.260570	-0.082761
Zn12	Zn	1.668710	0.072763	0.250573
O13	O	1.063569	-0.506107	-0.354592
O14	O	1.396902	-0.172774	-0.021259
O15	O	1.730236	0.160559	0.312074
O16	O	1.228098	-0.441581	-0.399817
O17	O	1.561432	-0.108248	-0.066484
O18	O	1.894765	0.225085	0.266850
O19	O	1.108713	-0.570699	-0.190086
O20	O	1.442047	-0.237366	0.143248
O21	O	1.775380	0.095968	0.476581
O22	O	1.018416	-0.271273	-0.309418
O23	O	1.351749	0.062060	0.023915
O24	O	1.685082	0.395393	0.357248
O25	O	1.228047	-0.570666	-0.309405
O26	O	1.561380	-0.237332	0.023928
O27	O	1.894714	0.096001	0.357262
O28	O	1.108833	-0.271248	-0.399825
O29	O	1.442166	0.062085	-0.066491
O30	O	1.775499	0.395419	0.266842
O31	O	1.018348	-0.441640	-0.190092
O32	O	1.351681	-0.108307	0.143242
O33	O	1.685014	0.225027	0.476575
O34	O	0.899070	-0.441583	-0.309384
O35	O	1.232403	-0.108250	0.023950
O36	O	1.565737	0.225083	0.357283
O37	O	1.018394	-0.570566	-0.519083
O38	O	1.351728	-0.237233	-0.185750
O39	O	1.685061	0.096101	0.147584
O40	O	0.899061	-0.570599	-0.399764
O41	O	1.232394	-0.237266	-0.066431
O42	O	1.565727	0.096067	0.266903
O43	O	1.108821	-0.441525	-0.519109
O44	O	1.442154	-0.108191	-0.185776
O45	O	1.775487	0.225142	0.147558
O46	O	1.108701	-0.740975	-0.309370
O47	O	1.442035	-0.407642	0.023963
O48	O	1.775368	-0.074309	0.357296
O49	O	1.018326	-0.740933	-0.399756
O50	O	1.351660	-0.407599	-0.066423
O51	O	1.684993	-0.074266	0.266910
C52	C	0.872363	-0.506089	-0.354571
C53	C	1.205696	-0.172756	-0.021238
C54	C	1.539029	0.160577	0.312095
C55	C	0.790564	-0.506107	-0.354580
C56	C	1.123897	-0.172774	-0.021246
C57	C	1.457230	0.160560	0.312087
C58	C	0.602384	-0.573391	-0.401582
C59	C	0.935718	-0.240058	-0.068248
C60	C	1.269051	0.093275	0.265085
C61	C	0.525526	-0.573395	-0.401591
C62	C	0.858859	-0.240061	-0.068257
C63	C	1.192192	0.093272	0.265076
C64	C	0.525506	-0.438843	-0.307619
C65	C	0.858839	-0.105509	0.025714
C66	C	1.192172	0.227824	0.359047
C67	C	0.602363	-0.438835	-0.307614
C68	C	0.935696	-0.105501	0.025719
C69	C	1.269030	0.227832	0.359052
C70	C	0.640800	-0.506115	-0.354594
C71	C	0.974134	-0.172782	-0.021261
C72	C	1.307467	0.160552	0.312072
C73	C	0.487084	-0.506126	-0.354608
C74	C	0.820418	-0.172793	-0.021275
C75	C	1.153751	0.160541	0.312058
C76	C	0.403751	-0.506129	-0.354618
C77	C	0.737084	-0.172796	-0.021285
C78	C	1.070417	0.160537	0.312049
C79	C	0.724139	-0.506111	-0.354586
C80	C	1.057473	-0.172778	-0.021253
C81	C	1.390806	0.160556	0.312081
C82	C	1.063525	-0.779075	-0.354575
C83	C	1.396858	-0.445742	-0.021241
C84	C	1.730191	-0.112408	0.312092
C85	C	1.063573	-0.895852	-0.354592
C86	C	1.396907	-0.562518	-0.021258
C87	C	1.730240	-0.229185	0.312075
C88	C	1.157751	-0.895843	-0.260543
C89	C	1.491085	-0.562510	0.072790
C90	C	1.824418	-0.229176	0.406123
C91	C	1.204859	-0.950699	-0.213528
C92	C	1.538193	-0.617366	0.119806
C93	C	1.871526	-0.284033	0.453139
C94	C	1.204903	-1.060421	-0.213548
C95	C	1.538236	-0.727088	0.119786
C96	C	1.871569	-0.393754	0.453119
C97	C	1.157834	-1.115289	-0.260590
C98	C	1.491167	-0.781955	0.072743
C99	C	1.824501	-0.448622	0.406077
C100	C	1.110726	-1.060432	-0.307605
C101	C	1.444059	-0.727099	0.025728
C102	C	1.777392	-0.393765	0.359061
C103	C	1.110686	-0.950708	-0.307579
C104	C	1.444020	-0.617375	0.025755
C105	C	1.777353	-0.284041	0.359088
C106	C	1.016553	-1.060441	-0.401656
C107	C	1.349886	-0.727107	-0.068323
C108	C	1.683219	-0.393774	0.265010
C109	C	1.016505	-0.950719	-0.401634
C110	C	1.349838	-0.617386	-0.068300
C111	C	1.683171	-0.284053	0.265033
C112	C	0.969484	-1.115308	-0.448698
C113	C	1.302817	-0.781975	-0.115365
C114	C	1.636151	-0.448642	0.217968
C115	C	0.922371	-1.060452	-0.495711
C116	C	1.255704	-0.727119	-0.162378
C117	C	1.589038	-0.393785	0.170955
C118	C	0.922329	-0.950724	-0.495689
C119	C	1.255663	-0.617390	-0.162355
C120	C	1.588996	-0.284057	0.170978
C121	C	0.969397	-0.895863	-0.448649
C122	C	1.302730	-0.562529	-0.115316
C123	C	1.636063	-0.229196	0.218018
C124	C	1.255522	-0.506126	-0.354614
C125	C	1.588855	-0.172793	-0.021281
C126	C	1.922189	0.160540	0.312053
C127	C	1.337321	-0.506134	-0.354623
C128	C	1.670654	-0.172801	-0.021290
C129	C	2.003987	0.160532	0.312043
C130	C	1.063614	-0.506035	-0.546545
C131	C	1.396947	-0.172702	-0.213212
C132	C	1.730280	0.160632	0.120121
C133	C	1.063633	-0.506004	-0.628344
C134	C	1.396966	-0.172671	-0.295011
C135	C	1.730300	0.160663	0.038322
C136	C	1.063633	-0.232074	-0.354626
C137	C	1.396967	0.101259	-0.021293
C138	C	1.730300	0.434593	0.312040
C139	C	1.063661	-0.115297	-0.354641
C140	C	1.396994	0.218036	-0.021307
C141	C	1.730327	0.551369	0.312026
C142	C	1.110735	-0.438750	-0.816553
C143	C	1.444068	-0.105416	-0.483220
C144	C	1.777401	0.227917	-0.149886
C145	C	1.110744	-0.438719	-0.893412
C146	C	1.444077	-0.105386	-0.560079
C147	C	1.777410	0.227948	-0.226745
C148	C	1.016583	-0.573096	-0.893373
C149	C	1.349916	-0.239763	-0.560040
C150	C	1.683250	0.093570	-0.226707
C151	C	1.016571	-0.573121	-0.816516
C152	C	1.349904	-0.239787	-0.483183
C153	C	1.683238	0.093546	-0.149849
C154	C	1.063651	-0.505949	-0.778108
C155	C	1.396985	-0.172616	-0.444775
C156	C	1.730318	0.160718	-0.111441
C157	C	1.063672	-0.505894	-0.931824
C158	C	1.397005	-0.172560	-0.598491
C159	C	1.730339	0.160773	-0.265157
C160	C	1.063681	-0.505861	-1.015158
C161	C	1.397014	-0.172528	-0.681824
C162	C	1.730348	0.160806	-0.348491
C163	C	1.063641	-0.505980	-0.694769
C164	C	1.396975	-0.172647	-0.361436
C165	C	1.730308	0.160687	-0.028102
C166	C	1.063567	-0.506104	-0.163386
C167	C	1.396900	-0.172770	0.169947
C168	C	1.730233	0.160563	0.503281
C169	C	1.063690	-0.505839	-0.081588
C170	C	1.397023	-0.172505	0.251746
C171	C	1.730357	0.160828	0.585079
H172	H	1.157711	-0.806502	-0.260513
H173	H	1.491045	-0.473169	0.072821
H174	H	1.824378	-0.139835	0.406154
H175	H	0.494201	-0.384067	-0.269369
H176	H	0.827534	-0.050734	0.063965
H177	H	1.160867	0.282600	0.397298
Cl178	Cl	0.969227	-1.253244	-0.448412
Cl179	Cl	1.302560	-0.919910	-0.115079
Cl180	Cl	1.635894	-0.586577	0.218255
H181	H	1.243266	-1.105085	-0.175267
H182	H	1.576599	-0.771752	0.158066
H183	H	1.909932	-0.438418	0.491399
Cl184	Cl	1.157579	-1.253224	-0.260302
Cl185	Cl	1.490912	-0.919891	0.073032
Cl186	Cl	1.824245	-0.586557	0.406365
Cl187	Cl	0.863108	-0.881771	-0.554802
Cl188	Cl	1.196441	-0.548437	-0.221469
Cl189	Cl	1.529775	-0.215104	0.111865
H190	H	0.884055	-1.105134	-0.534013
H191	H	1.217389	-0.771800	-0.200679
H192	H	1.550722	-0.438467	0.132654
H193	H	1.243184	-0.906017	-0.175228
H194	H	1.576517	-0.572683	0.158106
H195	H	1.909850	-0.239350	0.491439
H196	H	0.969362	-0.806522	-0.448621
H197	H	1.302696	-0.473188	-0.115288
H198	H	1.636029	-0.139855	0.218045
H199	H	1.149068	-0.384051	-0.785283
H200	H	1.482402	-0.050718	-0.451950
H201	H	1.815735	0.282616	-0.118617
H202	H	1.149083	-0.383997	-0.924711
H203	H	1.482416	-0.050663	-0.591377
H204	H	1.815749	0.282670	-0.258044
H205	H	0.978254	-0.627787	-0.924655
H206	H	1.311587	-0.294454	-0.591321
H207	H	1.644920	0.038879	-0.257988
H208	H	0.633678	-0.628173	-0.439838
H209	H	0.967011	-0.294839	-0.106504
H210	H	1.300344	0.038494	0.226829
Cl211	Cl	0.957371	-0.657601	-0.768181
Cl212	Cl	1.290704	-0.324268	-0.434848
Cl213	Cl	1.624038	0.009066	-0.101514
H214	H	0.494251	-0.628176	-0.439853
H215	H	0.827584	-0.294843	-0.106520
H216	H	1.160917	0.038491	0.226813
Cl217	Cl	0.650661	-0.354245	-0.248545
Cl218	Cl	0.983994	-0.020912	0.084789
Cl219	Cl	1.317328	0.312422	0.418122
