data_functionalizedCrystal
_audit_creation_method	'MofGen! by Chris Wilmer'
_symmetry_space_group_name_H-M	'P1'
_symmetry_Int_Tables_number	1
_symmetry_cell_setting	triclinic
loop_
_symmetry_equiv_pos_as_xyz
  x,y,z
_cell_length_a	14.908783
_cell_length_b	14.908571
_cell_length_c	18.215399
_cell_angle_alpha	86.731625
_cell_angle_beta	86.680129
_cell_angle_gamma	83.202707
loop_
_atom_site_label
_atom_site_type_symbol
_atom_site_fract_x
_atom_site_fract_y
_atom_site_fract_z
Zn1	Zn	1.363021	0.280626	-0.493568
Zn2	Zn	1.863021	0.780626	0.006432
Zn3	Zn	1.354164	0.432005	-0.377206
Zn4	Zn	1.854164	0.932005	0.122794
Zn5	Zn	1.211646	0.289377	-0.363792
Zn6	Zn	1.711646	0.789377	0.136208
Zn7	Zn	1.202865	0.440673	-0.493507
Zn8	Zn	1.702865	0.940673	0.006493
O9	O	1.282924	0.360670	-0.432018
O10	O	1.782924	0.860670	0.067982
O11	O	1.488516	0.293417	-0.483772
O12	O	1.988516	0.793417	0.016228
O13	O	1.335227	0.413121	-0.272443
O14	O	1.835227	0.913121	0.227557
O15	O	1.239108	0.161546	-0.375419
O16	O	1.739108	0.661546	0.124581
O17	O	1.482009	0.404635	-0.398282
O18	O	1.982009	0.904635	0.101718
O19	O	1.350322	0.155116	-0.470765
O20	O	1.850322	0.655116	0.029235
O21	O	1.230520	0.308332	-0.262587
O22	O	1.730520	0.808332	0.237413
O23	O	1.083811	0.316736	-0.375359
O24	O	1.583811	0.816736	0.124641
O25	O	1.224141	0.419407	-0.596499
O26	O	1.724141	0.919407	-0.096499
O27	O	1.077360	0.427893	-0.470660
O28	O	1.577360	0.927893	0.029340
O29	O	1.341807	0.301821	-0.596544
O30	O	1.841807	0.801821	-0.096544
O31	O	1.326712	0.559826	-0.398222
O32	O	1.826712	1.059826	0.101778
O33	O	1.215553	0.566193	-0.483667
O34	O	1.715553	1.066193	0.016333
C35	C	1.047741	0.374205	-0.421548
C36	C	1.547741	0.874205	0.078452
C37	C	0.947128	0.380017	-0.417087
C38	C	1.447128	0.880017	0.082913
C39	C	0.764829	0.275286	-0.497877
C40	C	1.264829	0.775286	0.002123
C41	C	0.670294	0.280744	-0.493688
C42	C	1.170294	0.780744	0.006312
C43	C	0.663521	0.396386	-0.404516
C44	C	1.163521	0.896386	0.095484
C45	C	0.758056	0.390928	-0.408705
C46	C	1.258056	0.890928	0.091295
C47	C	0.808707	0.330377	-0.455388
C48	C	1.308707	0.830377	0.044612
C49	C	0.903244	0.324924	-0.459581
C50	C	1.403244	0.824924	0.040419
C51	C	0.896469	0.440561	-0.370405
C52	C	1.396469	0.940561	0.129595
C53	C	0.801934	0.446019	-0.366216
C54	C	1.301934	0.946019	0.133784
C55	C	1.269243	0.595852	-0.442411
C56	C	1.769243	1.095852	0.057589
C57	C	1.263473	0.696460	-0.446885
C58	C	1.763473	1.196460	0.053115
C59	C	1.282983	0.360605	-0.623971
C60	C	1.782983	0.860605	-0.123971
C61	C	1.283008	0.360577	-0.705770
C62	C	1.783008	0.860577	-0.205770
C63	C	1.519025	0.347083	-0.442530
C64	C	2.019025	0.847083	0.057470
C65	C	1.619637	0.341293	-0.447010
C66	C	2.119637	0.841293	0.052990
C67	C	1.197422	0.841611	-0.497632
C68	C	1.697422	1.341611	0.002368
C69	C	1.202841	0.747082	-0.493433
C70	C	1.702841	1.247082	0.006567
C71	C	1.318692	0.740373	-0.404534
C72	C	1.818692	1.240373	0.095466
C73	C	1.313273	0.834902	-0.408733
C74	C	1.813273	1.334902	0.091267
C75	C	1.252635	0.885518	-0.455283
C76	C	1.752635	1.385518	0.044717
C77	C	1.247211	0.980049	-0.459477
C78	C	1.747211	1.480049	0.040523
C79	C	1.363067	0.973338	-0.370583
C80	C	1.863067	1.473338	0.129417
C81	C	1.368486	0.878809	-0.366384
C82	C	1.868486	1.378809	0.133616
C83	C	1.296654	1.124570	-0.421593
C84	C	1.796654	1.624570	0.078407
C85	C	1.302430	1.023962	-0.417127
C86	C	1.802430	1.523962	0.082873
C87	C	1.344300	0.299294	-0.893987
C88	C	1.844300	0.799294	-0.393987
C89	C	1.344313	0.299267	-0.970845
C90	C	1.844313	0.799267	-0.470845
C91	C	1.221787	0.421715	-0.970787
C92	C	1.721787	0.921715	-0.470787
C93	C	1.221771	0.421737	-0.893930
C94	C	1.721771	0.921737	-0.393930
C95	C	1.283033	0.360528	-0.855532
C96	C	1.783033	0.860528	-0.355532
C97	C	1.283061	0.360479	-1.009248
C98	C	1.783061	0.860479	-0.509248
C99	C	1.283074	0.360450	-1.092581
C100	C	1.783074	0.860450	-0.592581
C101	C	1.283019	0.360555	-0.772194
C102	C	1.783019	0.860555	-0.272194
C103	C	1.282921	0.360667	-0.240812
C104	C	1.782921	0.860667	0.259188
C105	C	1.283086	0.360430	-0.159010
C106	C	1.783086	0.860430	0.340990
H107	H	0.634573	0.235881	-0.528285
H108	H	1.134573	0.735881	-0.028285
F109	F	1.409528	0.234100	-1.011769
F110	F	1.909528	0.734100	-0.511769
F111	F	1.409498	0.234148	-0.853124
F112	F	1.909498	0.734148	-0.353124
H113	H	1.171874	0.471600	-0.862619
H114	H	1.671874	0.971600	-0.362619
H115	H	1.171912	0.471551	-1.002060
H116	H	1.671912	0.971551	-0.502060
H117	H	0.944482	0.275622	-0.497593
H118	H	1.444482	0.775622	0.002407
F119	F	0.748019	0.510455	-0.316534
F120	F	1.248019	1.010455	0.183466
F121	F	1.182672	1.033918	-0.509016
F122	F	1.682672	1.533918	-0.009016
F123	F	0.609601	0.460814	-0.354829
F124	F	1.109601	0.960814	0.145171
F125	F	0.943173	0.499202	-0.325187
F126	F	1.443173	0.999202	0.174813
F127	F	0.818737	0.210852	-0.547566
F128	F	1.318737	0.710852	-0.047566
H129	H	1.368069	0.699148	-0.366641
H130	H	1.868069	1.199148	0.133359
F131	F	1.132875	0.895483	-0.547162
F132	F	1.632875	1.395483	-0.047162
H133	H	1.157882	0.711336	-0.527918
H134	H	1.657882	1.211336	-0.027918
H135	H	1.408025	1.009097	-0.336099
H136	H	1.908025	1.509097	0.163901
F137	F	1.433021	0.824930	-0.316849
F138	F	1.933021	1.324930	0.183151
