data_functionalizedCrystal
_audit_creation_method	'MofGen! by Chris Wilmer'
_symmetry_space_group_name_H-M	'P1'
_symmetry_Int_Tables_number	1
_symmetry_cell_setting	triclinic
loop_
_symmetry_equiv_pos_as_xyz
  x,y,z
_cell_length_a	14.908571
_cell_length_b	14.908520
_cell_length_c	14.908757
_cell_angle_alpha	89.821571
_cell_angle_beta	96.774914
_cell_angle_gamma	90.205961
loop_
_atom_site_label
_atom_site_type_symbol
_atom_site_fract_x
_atom_site_fract_y
_atom_site_fract_z
Zn1	Zn	1.391143	-0.404336	0.613556
Zn2	Zn	1.891143	0.095664	1.113556
Zn3	Zn	1.373710	-0.562395	0.470806
Zn4	Zn	1.873710	-0.062395	0.970806
Zn5	Zn	1.231079	-0.404305	0.453488
Zn6	Zn	1.731079	0.095695	0.953488
Zn7	Zn	1.232008	-0.546016	0.612513
Zn8	Zn	1.732008	-0.046016	1.112513
O9	O	1.306985	-0.479263	0.537591
O10	O	1.806985	0.020737	1.037591
O11	O	1.515121	-0.432170	0.602304
O12	O	2.015121	0.067830	1.102304
O13	O	1.347105	-0.548266	0.342215
O14	O	1.847105	-0.048266	0.842215
O15	O	1.259219	-0.278855	0.467910
O16	O	1.759219	0.221145	0.967910
O17	O	1.502313	-0.548295	0.497426
O18	O	2.002313	-0.048295	0.997426
O19	O	1.376818	-0.278877	0.585511
O20	O	1.876818	0.221123	1.085511
O21	O	1.242314	-0.432118	0.329491
O22	O	1.742314	0.067882	0.829491
O23	O	1.104912	-0.416236	0.466899
O24	O	1.604912	0.083764	0.966899
O25	O	1.260802	-0.520380	0.738945
O26	O	1.760802	-0.020380	1.238945
O27	O	1.105594	-0.520351	0.583734
O28	O	1.605594	-0.020351	1.083734
O29	O	1.377719	-0.416288	0.739711
O30	O	1.877719	0.083712	1.239711
O31	O	1.348006	-0.685677	0.496415
O32	O	1.848006	-0.185677	0.996415
O33	O	1.243898	-0.673644	0.600526
O34	O	1.743898	-0.173644	1.100526
C35	C	1.072507	-0.466514	0.523324
C36	C	1.572507	0.033486	1.023324
C37	C	0.972197	-0.461080	0.517244
C38	C	1.472197	0.038920	1.017244
C39	C	1.294187	-0.712190	0.550258
C40	C	1.794187	-0.212190	1.050258
C41	C	1.288796	-0.811839	0.555712
C42	C	1.788796	-0.311839	1.055712
C43	C	0.784443	-0.559469	0.627332
C44	C	1.284443	-0.059469	1.127332
C45	C	0.690192	-0.554366	0.621622
C46	C	1.190192	-0.054366	1.121622
C47	C	0.689444	-0.445766	0.500119
C48	C	1.189444	0.054234	1.000119
C49	C	0.783694	-0.450869	0.505829
C50	C	1.283694	0.049131	1.005829
C51	C	0.831190	-0.507724	0.569437
C52	C	1.331190	-0.007724	1.069437
C53	C	0.925442	-0.512831	0.575142
C54	C	1.425442	-0.012831	1.075142
C55	C	0.924693	-0.404227	0.453643
C56	C	1.424693	0.095773	0.953643
C57	C	0.830442	-0.399124	0.447933
C58	C	1.330442	0.100876	0.947933
C59	C	1.387198	-1.011562	0.457650
C60	C	1.887198	-0.511562	0.957650
C61	C	1.382136	-1.105193	0.462772
C62	C	1.882136	-0.605193	0.962772
C63	C	1.273615	-1.092732	0.571082
C64	C	1.773615	-0.592732	1.071082
C65	C	1.278677	-0.999101	0.565960
C66	C	1.778677	-0.499101	1.065960
C67	C	1.335470	-0.958520	0.509241
C68	C	1.835470	-0.458520	1.009241
C69	C	1.340527	-0.864888	0.504115
C70	C	1.840527	-0.364888	1.004115
C71	C	1.232011	-0.852429	0.612429
C72	C	1.732011	-0.352429	1.112429
C73	C	1.226948	-0.946059	0.617551
C74	C	1.726948	-0.446059	1.117551
C75	C	1.542379	-0.492063	0.551913
C76	C	2.042379	0.007937	1.051913
C77	C	1.642689	-0.497518	0.558017
C78	C	2.142689	0.002482	1.058017
C79	C	1.321309	-0.466511	0.772990
C80	C	1.821309	0.033489	1.272990
C81	C	1.327413	-0.461077	0.873304
C82	C	1.827413	0.038923	1.373304
C83	C	1.319859	-0.245427	0.524895
C84	C	1.819859	0.254573	1.024895
C85	C	1.325345	-0.145781	0.519485
C86	C	1.825345	0.354219	1.019485
C87	C	1.217139	-0.559277	1.061008
C88	C	1.717139	-0.059277	1.561008
C89	C	1.222871	-0.554173	1.155262
C90	C	1.722871	-0.054173	1.655262
C91	C	1.344612	-0.445772	1.156066
C92	C	1.844612	0.054228	1.656066
C93	C	1.338880	-0.450876	1.061813
C94	C	1.838880	0.049124	1.561813
C95	C	1.275141	-0.507629	1.014287
C96	C	1.775141	-0.007629	1.514287
C97	C	1.269405	-0.512726	0.920031
C98	C	1.769405	-0.012726	1.420031
C99	C	1.391150	-0.404331	0.920838
C100	C	1.891150	0.095669	1.420838
C101	C	1.396882	-0.399227	1.015091
C102	C	1.896882	0.100773	1.515091
C103	C	1.292709	-0.491986	1.303107
C104	C	1.792709	0.008014	1.803107
C105	C	1.286605	-0.497422	1.202794
C106	C	1.786605	0.002578	1.702794
H107	H	0.964112	-0.559126	0.626933
H108	H	1.464112	-0.059126	1.126933
H109	H	0.962764	-0.362094	0.406498
H110	H	1.462764	0.137906	0.906498
H111	H	0.823114	-0.605767	0.679120
H112	H	1.323114	-0.105767	1.179120
H113	H	0.652134	-0.596501	0.668769
H114	H	1.152134	-0.096501	1.168769
C115	C	0.637183	-0.383222	0.430164
C116	C	1.137183	0.116778	0.930164
N117	N	0.597819	-0.336112	0.377475
N118	N	1.097819	0.163888	0.877475
H119	H	1.438375	-0.362270	0.882787
H120	H	1.938375	0.137730	1.382787
C121	C	1.199292	-0.575157	0.867755
C122	C	1.699292	-0.075157	1.367755
N123	N	1.146483	-0.622184	0.828383
N124	N	1.646483	-0.122184	1.328383
H125	H	0.791758	-0.352832	0.396147
H126	H	1.291758	0.147168	0.896147
C127	C	1.402999	-0.820251	0.441723
C128	C	1.902999	-0.320251	0.941723
N129	N	1.450057	-0.786632	0.394730
N130	N	1.950057	-0.286632	0.894730
C131	C	1.164475	-0.990710	0.679934
C132	C	1.664475	-0.490710	1.179934
N133	N	1.117414	-1.024339	0.726917
N134	N	1.617414	-0.524339	1.226917
H135	H	1.433434	-0.978521	0.411461
H136	H	1.933434	-0.478521	0.911461
H137	H	1.189887	-0.809231	0.654436
H138	H	1.689887	-0.309231	1.154436
H139	H	1.424261	-1.148377	0.420763
H140	H	1.924261	-0.648377	0.920763
C141	C	1.147023	-0.621701	1.008728
C142	C	1.647023	-0.121701	1.508728
N143	N	1.094211	-0.668722	0.969351
N144	N	1.594211	-0.168722	1.469351
H145	H	1.227383	-1.125789	0.617266
H146	H	1.727383	-0.625789	1.117266
C147	C	1.159061	-0.610987	1.206651
C148	C	1.659061	-0.110987	1.706651
N149	N	1.110997	-0.653781	1.245358
N150	N	1.610997	-0.153781	1.745358
H151	H	1.396513	-0.399575	1.194779
H152	H	1.896513	0.100425	1.694779
C153	C	1.466985	-0.336794	1.067379
C154	C	1.966985	0.163206	1.567379
N155	N	1.519783	-0.289763	1.106761
N156	N	2.019783	0.210237	1.606761
