data_functionalizedCrystal
_audit_creation_method	'MofGen! by Chris Wilmer'
_symmetry_space_group_name_H-M	'P1'
_symmetry_Int_Tables_number	1
_symmetry_cell_setting	triclinic
loop_
_symmetry_equiv_pos_as_xyz
  x,y,z
_cell_length_a	12.759401
_cell_length_b	12.827892
_cell_length_c	12.759393
_cell_angle_alpha	89.968903
_cell_angle_beta	89.980163
_cell_angle_gamma	90.016917
loop_
_atom_site_label
_atom_site_type_symbol
_atom_site_fract_x
_atom_site_fract_y
_atom_site_fract_z
Zn1	Zn	1.606250	-0.415928	-0.594024
Zn2	Zn	2.106250	0.084072	-0.094024
Zn3	Zn	1.606142	-0.590709	-0.418346
Zn4	Zn	2.106142	-0.090709	0.081654
Zn5	Zn	1.430552	-0.415987	-0.418359
Zn6	Zn	1.930552	0.084013	0.081641
Zn7	Zn	1.430538	-0.590633	-0.593983
Zn8	Zn	1.930538	-0.090633	-0.093983
O9	O	1.518371	-0.503314	-0.506178
O10	O	2.018371	-0.003314	-0.006178
O11	O	1.753257	-0.439121	-0.570731
O12	O	2.253257	0.060879	-0.070731
O13	O	1.582810	-0.567589	-0.271326
O14	O	2.082810	-0.067589	0.228674
O15	O	1.453909	-0.269744	-0.441684
O16	O	1.953909	0.230256	0.058316
O17	O	1.753178	-0.567531	-0.441661
O18	O	2.253178	-0.067531	0.058339
O19	O	1.582994	-0.269700	-0.570744
O20	O	2.082994	0.230300	-0.070744
O21	O	1.453805	-0.439221	-0.271336
O22	O	1.953805	0.060779	0.228664
O23	O	1.283529	-0.439147	-0.441644
O24	O	1.783529	0.060853	0.058356
O25	O	1.453886	-0.567401	-0.741009
O26	O	1.953886	-0.067401	-0.241009
O27	O	1.283519	-0.567458	-0.570674
O28	O	1.783519	-0.067458	-0.070674
O29	O	1.582981	-0.439047	-0.741040
O30	O	2.082981	0.060953	-0.241040
O31	O	1.582797	-0.736935	-0.441622
O32	O	2.082797	-0.236935	0.058378
O33	O	1.453782	-0.736879	-0.570661
O34	O	1.953782	-0.236879	-0.070661
C35	C	1.245403	-0.503302	-0.506157
C36	C	1.745403	-0.003302	-0.006157
C37	C	1.128627	-0.503321	-0.506173
C38	C	1.628627	-0.003321	-0.006173
C39	C	1.073787	-0.570235	-0.573253
C40	C	1.573787	-0.070235	-0.073253
C41	C	0.964063	-0.570239	-0.573274
C42	C	1.464063	-0.070239	-0.073274
C43	C	0.964028	-0.436413	-0.439125
C44	C	1.464028	0.063587	0.060875
C45	C	1.073750	-0.436405	-0.439111
C46	C	1.573750	0.063595	0.060889
C47	C	1.518305	-0.774824	-0.506158
C48	C	2.018305	-0.274824	-0.006158
C49	C	1.518373	-0.890977	-0.506185
C50	C	2.018373	-0.390977	-0.006185
C51	C	1.582220	-0.942657	-0.570106
C52	C	2.082220	-0.442657	-0.070106
C53	C	1.582291	-1.062708	-0.570135
C54	C	2.082291	-0.562708	-0.070135
C55	C	1.792404	-0.503328	-0.506199
C56	C	2.292404	-0.003328	-0.006199
C57	C	1.909181	-0.503334	-0.506209
C58	C	2.409181	-0.003334	-0.006209
C59	C	1.518444	-0.503209	-0.780211
C60	C	2.018444	-0.003209	-0.280211
C61	C	1.518475	-0.503164	-0.896988
C62	C	2.018475	-0.003164	-0.396988
C63	C	1.518465	-0.230744	-0.506220
C64	C	2.018465	0.269256	-0.006220
C65	C	1.518506	-0.114591	-0.506239
C66	C	2.018506	0.385409	-0.006239
C67	C	1.451326	-0.436311	-0.951855
C68	C	1.951326	0.063689	-0.451855
C69	C	1.451351	-0.436278	-1.061579
C70	C	1.951351	0.063722	-0.561579
C71	C	1.585682	-0.569955	-1.061560
C72	C	2.085682	-0.069955	-0.561560
C73	C	1.585652	-0.569992	-0.951838
C74	C	2.085652	-0.069992	-0.451838
C75	C	1.518358	-0.503344	-0.233211
C76	C	2.018358	-0.003344	0.266789
C77	C	1.518530	-0.503095	-0.116434
C78	C	2.018530	-0.003095	0.383566
H79	H	0.919417	-0.624725	-0.627899
H80	H	1.419417	-0.124725	-0.127899
H81	H	0.919334	-0.381934	-0.384524
H82	H	1.419334	0.118066	0.115476
F83	F	1.653590	-0.884326	-0.641619
F84	F	2.153590	-0.384326	-0.141619
F85	F	1.132118	-0.365177	-0.367716
F86	F	1.632118	0.134823	0.132284
F87	F	1.657121	-0.641154	-0.893441
F88	F	2.157121	-0.141154	-0.393441
F89	F	1.447059	-1.056510	-0.434698
F90	F	1.947059	-0.556510	0.065302
H91	H	1.636957	-1.107152	-0.624856
H92	H	2.136957	-0.607152	-0.124856
F93	F	1.446988	-0.949309	-0.434687
F94	F	1.946988	-0.449309	0.065313
F95	F	1.379829	-0.365189	-0.893483
F96	F	1.879829	0.134811	-0.393483
H97	H	1.640376	-0.624364	-1.106232
H98	H	2.140376	-0.124364	-0.606232
F99	F	1.132187	-0.641450	-0.644630
F100	F	1.632187	-0.141450	-0.144630
F101	F	1.379870	-0.365135	-1.119967
F102	F	1.879870	0.134865	-0.619967
