data_functionalizedCrystal
_audit_creation_method	'MofGen! by Chris Wilmer'
_symmetry_space_group_name_H-M	'P1'
_symmetry_Int_Tables_number	1
_symmetry_cell_setting	triclinic
loop_
_symmetry_equiv_pos_as_xyz
  x,y,z
_cell_length_a	12.759401
_cell_length_b	11.169416
_cell_length_c	12.759393
_cell_angle_alpha	89.971356
_cell_angle_beta	89.981504
_cell_angle_gamma	90.010501
loop_
_atom_site_label
_atom_site_type_symbol
_atom_site_fract_x
_atom_site_fract_y
_atom_site_fract_z
Zn1	Zn	1.606287	-0.477731	-0.594003
Zn2	Zn	1.606195	-0.678464	-0.418332
Zn3	Zn	1.430589	-0.477794	-0.418342
Zn4	Zn	1.430591	-0.678372	-0.593973
O5	O	1.518416	-0.578090	-0.506162
O6	O	1.753296	-0.504371	-0.570708
O7	O	1.582861	-0.651910	-0.271312
O8	O	1.453934	-0.309836	-0.441660
O9	O	1.753228	-0.651849	-0.441643
O10	O	1.583018	-0.309790	-0.570718
O11	O	1.453844	-0.504478	-0.271320
O12	O	1.283568	-0.504389	-0.441632
O13	O	1.453937	-0.651691	-0.740998
O14	O	1.283570	-0.651752	-0.570667
O15	O	1.583020	-0.504282	-0.741020
O16	O	1.582863	-0.846401	-0.441614
O17	O	1.453848	-0.846333	-0.570657
C18	C	1.245448	-0.578068	-0.506148
C19	C	1.128672	-0.578088	-0.506167
C20	C	1.073838	-0.654943	-0.573245
C21	C	0.964114	-0.654958	-0.573256
C22	C	0.964067	-0.501260	-0.439103
C23	C	1.073789	-0.501239	-0.439098
C24	C	1.073864	-0.743683	-0.650694
C25	C	0.964140	-0.743698	-0.650705
C26	C	1.518374	-0.889915	-0.506154
C27	C	1.518452	-1.023315	-0.506186
C28	C	1.792449	-0.578113	-0.506177
C29	C	1.909226	-0.578123	-0.506184
C30	C	1.518489	-0.577969	-0.780196
C31	C	1.518521	-0.577917	-0.896973
C32	C	1.518486	-0.265048	-0.506193
C33	C	1.518516	-0.131648	-0.506207
C34	C	1.585743	-0.501154	-0.951848
C35	C	1.585768	-0.501111	-1.061572
C36	C	1.451345	-0.654605	-1.061536
C37	C	1.451315	-0.654641	-0.951814
C38	C	1.663355	-0.412539	-0.951869
C39	C	1.663380	-0.412496	-1.061593
C40	C	1.518403	-0.578124	-0.233195
C41	C	1.518575	-0.577838	-0.116419
H42	H	1.118431	-0.438649	-0.384484
H43	H	1.396572	-0.717145	-0.907139
O44	O	1.109481	-0.714322	-0.747837
C45	C	1.170871	-0.808896	-0.787640
H46	H	1.148194	-0.895924	-0.746790
H47	H	1.257288	-0.789270	-0.772818
C48	C	1.179680	-0.714268	-0.956496
C49	C	1.151821	-0.821159	-0.906329
H50	H	1.167934	-0.721830	-1.029710
H51	H	1.138324	-0.650549	-0.929680
H52	H	1.251692	-0.697924	-0.944134
H53	H	1.079807	-0.837493	-0.918681
H54	H	1.193165	-0.884881	-0.933151
O55	O	1.760371	-0.442330	-1.097262
C56	C	1.753606	-0.547012	-1.158596
H57	H	1.670371	-0.557118	-1.189813
H58	H	1.774297	-0.628138	-1.108456
C59	C	1.932931	-0.525709	-1.212816
C60	C	1.830703	-0.538115	-1.251165
H61	H	1.980491	-0.520225	-1.269914
H62	H	1.937491	-0.455185	-1.171491
H63	H	1.950160	-0.593317	-1.171032
H64	H	1.813471	-0.470501	-1.292936
H65	H	1.826142	-0.608627	-1.292499
H66	H	0.919368	-0.438691	-0.384499
H67	H	1.641580	-0.319593	-0.922109
H68	H	1.396626	-0.717067	-1.106201
O69	O	0.928715	-0.854644	-0.624663
C70	C	0.965642	-0.938734	-0.698309
H71	H	1.039053	-0.902309	-0.738066
H72	H	0.902550	-0.955671	-0.759789
C73	C	0.901876	-1.101653	-0.593173
C74	C	0.992046	-1.056919	-0.641996
H75	H	0.918159	-1.174557	-0.558439
H76	H	0.876994	-1.045000	-0.543557
H77	H	0.849308	-1.115757	-0.644415
H78	H	1.044608	-1.042801	-0.590753
H79	H	1.016938	-1.113572	-0.691602
O80	O	1.114633	-0.848867	-0.615756
C81	C	1.224982	-0.842633	-0.617844
H82	H	1.250640	-0.744921	-0.614965
H83	H	1.255273	-0.885606	-0.693003
C84	C	1.238428	-1.029777	-0.526023
C85	C	1.269942	-0.909766	-0.522478
H86	H	1.266163	-1.071191	-0.467199
H87	H	1.164084	-1.033980	-0.524619
H88	H	1.263673	-1.065572	-0.588659
H89	H	1.244686	-0.873969	-0.459849
H90	H	1.344284	-0.905558	-0.523869
O91	O	0.923622	-0.704307	-0.743064
C92	C	0.957895	-0.779231	-0.825100
H93	H	0.980416	-0.870449	-0.791927
H94	H	1.028882	-0.737186	-0.865022
C95	C	0.841356	-0.682611	-0.946341
C96	C	0.869009	-0.794651	-0.905597
H97	H	0.786530	-0.692120	-0.995998
H98	H	0.818268	-0.632130	-0.891073
H99	H	0.900520	-0.647586	-0.979601
H100	H	0.809850	-0.829667	-0.872327
H101	H	0.892086	-0.845138	-0.960862
O102	O	1.755457	-0.452301	-0.911083
C103	C	1.749985	-0.449960	-0.800735
H104	H	1.664448	-0.453403	-0.775073
H105	H	1.787538	-0.364048	-0.770485
C106	C	1.913881	-0.554577	-0.787242
C107	C	1.808824	-0.558816	-0.755724
H108	H	1.950179	-0.621720	-0.759475
H109	H	1.917571	-0.556150	-0.861585
H110	H	1.945161	-0.482978	-0.762032
H111	H	1.777542	-0.630406	-0.780945
H112	H	1.805130	-0.557257	-0.681383
O113	O	1.628504	-0.307138	-1.102087
C114	C	1.525056	-0.286084	-1.067874
H115	H	1.510032	-0.338137	-0.992476
H116	H	1.467634	-0.316751	-1.130817
C117	C	1.528373	-0.087412	-1.139931
C118	C	1.509923	-0.151337	-1.047321
H119	H	1.519035	-0.004294	-1.127257
H120	H	1.598066	-0.101597	-1.162985
H121	H	1.480518	-0.112981	-1.192374
H122	H	1.557785	-0.125778	-0.994884
H123	H	1.440237	-0.137145	-1.024257
