data_functionalizedCrystal
_audit_creation_method	'MofGen! by Chris Wilmer'
_symmetry_space_group_name_H-M	'P1'
_symmetry_Int_Tables_number	1
_symmetry_cell_setting	triclinic
loop_
_symmetry_equiv_pos_as_xyz
  x,y,z
_cell_length_a	17.077404
_cell_length_b	21.395362
_cell_length_c	17.077396
_cell_angle_alpha	89.966876
_cell_angle_beta	89.982480
_cell_angle_gamma	90.025177
loop_
_atom_site_label
_atom_site_type_symbol
_atom_site_fract_x
_atom_site_fract_y
_atom_site_fract_z
Zn1	Zn	1.199999	-0.249511	-0.443828
Zn2	Zn	1.449999	0.000489	-0.193828
Zn3	Zn	1.699999	0.250489	0.056172
Zn4	Zn	1.949999	0.500489	0.306172
Zn5	Zn	1.199896	-0.354293	-0.312553
Zn6	Zn	1.449896	-0.104293	-0.062553
Zn7	Zn	1.699896	0.145707	0.187447
Zn8	Zn	1.949896	0.395707	0.437447
Zn9	Zn	1.068736	-0.249525	-0.312575
Zn10	Zn	1.318736	0.000475	-0.062575
Zn11	Zn	1.568736	0.250475	0.187425
Zn12	Zn	1.818736	0.500475	0.437425
Zn13	Zn	1.068683	-0.354246	-0.443776
Zn14	Zn	1.318683	-0.104246	-0.193776
Zn15	Zn	1.568683	0.145754	0.056224
Zn16	Zn	1.818683	0.395754	0.306224
O17	O	1.134329	-0.301894	-0.378183
O18	O	1.384329	-0.051894	-0.128183
O19	O	1.634329	0.198106	0.121817
O20	O	1.884329	0.448106	0.371817
O21	O	1.309833	-0.263424	-0.426426
O22	O	1.559833	-0.013424	-0.176426
O23	O	1.809833	0.236576	0.073574
O24	O	2.059833	0.486576	0.323574
O25	O	1.182476	-0.340422	-0.202709
O26	O	1.432476	-0.090422	0.047291
O27	O	1.682476	0.159578	0.297291
O28	O	1.932476	0.409578	0.547291
O29	O	1.086214	-0.161845	-0.330017
O30	O	1.336214	0.088155	-0.080017
O31	O	1.586214	0.338155	0.169983
O32	O	1.836214	0.588155	0.419983
O33	O	1.309757	-0.340407	-0.329979
O34	O	1.559757	-0.090407	-0.079979
O35	O	1.809757	0.159593	0.170021
O36	O	2.059757	0.409593	0.420021
O37	O	1.182653	-0.161835	-0.426448
O38	O	1.432653	0.088165	-0.176448
O39	O	1.682653	0.338165	0.073552
O40	O	1.932653	0.588165	0.323552
O41	O	1.086114	-0.263449	-0.202725
O42	O	1.336114	-0.013449	0.047275
O43	O	1.586114	0.236551	0.297275
O44	O	1.836114	0.486551	0.547275
O45	O	0.958882	-0.263403	-0.329967
O46	O	1.208882	-0.013403	-0.079967
O47	O	1.458882	0.236597	0.170033
O48	O	1.708882	0.486597	0.420033
O49	O	1.086124	-0.340326	-0.553630
O50	O	1.336124	-0.090326	-0.303630
O51	O	1.586124	0.159674	-0.053630
O52	O	1.836124	0.409674	0.196370
O53	O	0.958844	-0.340341	-0.426359
O54	O	1.208844	-0.090341	-0.176359
O55	O	1.458844	0.159659	0.073641
O56	O	1.708844	0.409659	0.323641
O57	O	1.182601	-0.263378	-0.553668
O58	O	1.432601	-0.013378	-0.303668
O59	O	1.682601	0.236622	-0.053668
O60	O	1.932601	0.486622	0.196332
O61	O	1.182425	-0.441965	-0.329929
O62	O	1.432425	-0.191965	-0.079929
O63	O	1.682425	0.058035	0.170071
O64	O	1.932425	0.308035	0.420071
O65	O	1.086024	-0.441930	-0.426338
O66	O	1.336024	-0.191930	-0.176338
O67	O	1.586024	0.058070	0.073662
O68	O	1.836024	0.308070	0.323662
C69	C	0.930381	-0.301869	-0.378160
C70	C	1.180381	-0.051869	-0.128160
C71	C	1.430381	0.198131	0.121840
C72	C	1.680381	0.448131	0.371840
C73	C	0.843131	-0.301873	-0.378169
C74	C	1.093131	-0.051873	-0.128169
C75	C	1.343131	0.198127	0.121831
C76	C	1.593131	0.448127	0.371831
C77	C	0.467317	-0.342045	-0.428318
C78	C	0.717317	-0.092045	-0.178318
C79	C	0.967317	0.157955	0.071682
C80	C	1.217317	0.407955	0.321682
C81	C	0.549297	-0.342037	-0.428306
C82	C	0.799297	-0.092037	-0.178306
C83	C	1.049297	0.157963	0.071694
C84	C	1.299297	0.407963	0.321694
C85	C	0.590282	-0.301910	-0.378195
C86	C	0.840282	-0.051910	-0.128195
C87	C	1.090282	0.198090	0.121805
C88	C	1.340282	0.448090	0.371805
C89	C	0.549282	-0.261794	-0.328088
C90	C	0.799282	-0.011794	-0.078088
C91	C	1.049282	0.238206	0.171912
C92	C	1.299282	0.488206	0.421912
C93	C	0.467303	-0.261806	-0.328096
C94	C	0.717303	-0.011806	-0.078096
C95	C	0.967303	0.238194	0.171904
C96	C	1.217303	0.488194	0.421904
C97	C	0.720152	-0.261771	-0.328075
C98	C	0.970152	-0.011771	-0.078075
C99	C	1.220152	0.238229	0.171925
C100	C	1.470152	0.488229	0.421925
C101	C	0.802137	-0.261758	-0.328067
C102	C	1.052137	-0.011758	-0.078067
C103	C	1.302137	0.238242	0.171933
C104	C	1.552137	0.488242	0.421933
C105	C	0.802146	-0.342002	-0.428285
C106	C	1.052146	-0.092002	-0.178285
C107	C	1.302146	0.157998	0.071715
C108	C	1.552146	0.407998	0.321715
C109	C	0.720168	-0.342014	-0.428293
C110	C	0.970168	-0.092014	-0.178293
C111	C	1.220168	0.157986	0.071707
C112	C	1.470168	0.407986	0.321707
C113	C	0.679173	-0.301897	-0.378186
C114	C	0.929173	-0.051897	-0.128186
C115	C	1.179173	0.198103	0.121814
C116	C	1.429173	0.448103	0.371814
C117	C	1.134228	-0.464681	-0.378143
C118	C	1.384228	-0.214681	-0.128143
C119	C	1.634228	0.035319	0.121857
C120	C	1.884228	0.285319	0.371857
C121	C	1.134257	-0.534323	-0.378152
C122	C	1.384257	-0.284323	-0.128152
C123	C	1.634257	-0.034323	0.121848
C124	C	1.884257	0.215677	0.371848
C125	C	1.184444	-0.566973	-0.428399
C126	C	1.434444	-0.316973	-0.178399
C127	C	1.684444	-0.066973	0.071601
C128	C	1.934444	0.183027	0.321601
C129	C	1.184472	-0.632409	-0.428418
C130	C	1.434472	-0.382409	-0.178418
C131	C	1.684472	-0.132409	0.071582
C132	C	1.934472	0.117591	0.321582
C133	C	1.134321	-0.665191	-0.378176
C134	C	1.384321	-0.415191	-0.128176
C135	C	1.634321	-0.165191	0.121824
C136	C	1.884321	0.084809	0.371824
C137	C	1.084124	-0.632532	-0.327925
C138	C	1.334124	-0.382532	-0.077925
C139	C	1.584124	-0.132532	0.172075
C140	C	1.834124	0.117468	0.422075
C141	C	1.084093	-0.567098	-0.327913
C142	C	1.334093	-0.317098	-0.077913
C143	C	1.584093	-0.067098	0.172087
C144	C	1.834093	0.182902	0.422087
C145	C	1.128219	-0.768903	-0.307467
C146	C	1.378219	-0.518903	-0.057467
C147	C	1.628219	-0.268903	0.192533
C148	C	1.878219	-0.018903	0.442533
C149	C	1.128257	-0.834336	-0.307478
C150	C	1.378257	-0.584336	-0.057478
C151	C	1.628257	-0.334336	0.192522
C152	C	1.878257	-0.084336	0.442522
C153	C	1.134414	-0.867012	-0.378214
C154	C	1.384414	-0.617012	-0.128214
C155	C	1.634414	-0.367012	0.121786
C156	C	1.884414	-0.117012	0.371786
C157	C	1.140550	-0.834246	-0.448941
C158	C	1.390550	-0.584246	-0.198941
C159	C	1.640550	-0.334246	0.051059
C160	C	1.890550	-0.084246	0.301059
C161	C	1.140519	-0.768812	-0.448929
C162	C	1.390519	-0.518812	-0.198929
C163	C	1.640519	-0.268812	0.051071
C164	C	1.890519	-0.018812	0.301071
C165	C	1.134349	-0.736143	-0.378184
C166	C	1.384349	-0.486143	-0.128184
C167	C	1.634349	-0.236143	0.121816
C168	C	1.884349	0.013857	0.371816
C169	C	1.184633	-0.970615	-0.428486
C170	C	1.434633	-0.720615	-0.178486
C171	C	1.684633	-0.470615	0.071514
C172	C	1.934633	-0.220615	0.321514
C173	C	1.184655	-1.036051	-0.428507
C174	C	1.434655	-0.786051	-0.178507
C175	C	1.684655	-0.536051	0.071493
C176	C	1.934655	-0.286051	0.321493
C177	C	1.084312	-1.036174	-0.328007
C178	C	1.334312	-0.786174	-0.078007
C179	C	1.584312	-0.536174	0.171993
C180	C	1.834312	-0.286174	0.421993
C181	C	1.084286	-0.970739	-0.327993
C182	C	1.334286	-0.720739	-0.077993
C183	C	1.584286	-0.470739	0.172007
C184	C	1.834286	-0.220739	0.422007
C185	C	1.134451	-0.937963	-0.378232
C186	C	1.384451	-0.687963	-0.128232
C187	C	1.634451	-0.437963	0.121768
C188	C	1.884451	-0.187963	0.371768
C189	C	1.339073	-0.301919	-0.378206
C190	C	1.589073	-0.051919	-0.128206
C191	C	1.839073	0.198081	0.121794
C192	C	2.089073	0.448081	0.371794
C193	C	1.426323	-0.301930	-0.378216
C194	C	1.676323	-0.051930	-0.128216
C195	C	1.926323	0.198070	0.121784
C196	C	2.176323	0.448070	0.371784
C197	C	1.134368	-0.301845	-0.582927
C198	C	1.384368	-0.051845	-0.332927
C199	C	1.634368	0.198155	-0.082927
C200	C	1.884368	0.448155	0.167073
C201	C	1.134385	-0.301824	-0.670177
C202	C	1.384385	-0.051824	-0.420177
C203	C	1.634385	0.198176	-0.170177
C204	C	1.884385	0.448176	0.079823
C205	C	1.134451	-0.138470	-0.378240
C206	C	1.384451	0.111530	-0.128240
C207	C	1.634451	0.361530	0.121760
C208	C	1.884451	0.611530	0.371760
C209	C	1.134503	-0.068829	-0.378265
C210	C	1.384503	0.181171	-0.128265
C211	C	1.634503	0.431171	0.121735
C212	C	1.884503	0.681171	0.371735
C213	C	1.084224	-0.261740	-0.711175
C214	C	1.334224	-0.011740	-0.461175
C215	C	1.584224	0.238260	-0.211175
C216	C	1.834224	0.488260	0.038825
C217	C	1.084237	-0.261726	-0.793156
C218	C	1.334237	-0.011726	-0.543156
C219	C	1.584237	0.238274	-0.293156
C220	C	1.834237	0.488274	-0.043156
C221	C	1.134415	-0.301793	-0.834137
C222	C	1.384415	-0.051793	-0.584137
C223	C	1.634415	0.198207	-0.334137
C224	C	1.884415	0.448207	-0.084137
C225	C	1.184578	-0.341882	-0.793133
C226	C	1.434578	-0.091882	-0.543133
C227	C	1.684578	0.158118	-0.293133
C228	C	1.934578	0.408118	-0.043133
C229	C	1.184561	-0.341899	-0.711154
C230	C	1.434561	-0.091899	-0.461154
C231	C	1.684561	0.158101	-0.211154
C232	C	1.934561	0.408101	0.038846
C233	C	1.184612	-0.341843	-0.964003
C234	C	1.434612	-0.091843	-0.714003
C235	C	1.684612	0.158157	-0.464003
C236	C	1.934612	0.408157	-0.214003
C237	C	1.184631	-0.341826	-1.045988
C238	C	1.434631	-0.091826	-0.795988
C239	C	1.684631	0.158174	-0.545988
C240	C	1.934631	0.408174	-0.295988
C241	C	1.084289	-0.261670	-1.046005
C242	C	1.334289	-0.011670	-0.796005
C243	C	1.584289	0.238330	-0.546005
C244	C	1.834289	0.488330	-0.296005
C245	C	1.084271	-0.261687	-0.964026
C246	C	1.334271	-0.011687	-0.714026
C247	C	1.584271	0.238313	-0.464026
C248	C	1.834271	0.488313	-0.214026
C249	C	1.134435	-0.301775	-0.923028
C250	C	1.384435	-0.051775	-0.673028
C251	C	1.634435	0.198225	-0.423028
C252	C	1.884435	0.448225	-0.173028
C253	C	1.134335	-0.301897	-0.174235
C254	C	1.384335	-0.051897	0.075765
C255	C	1.634335	0.198103	0.325765
C256	C	1.884335	0.448103	0.575765
C257	C	1.134470	-0.301741	-0.086986
C258	C	1.384470	-0.051741	0.163014
C259	C	1.634470	0.198259	0.413014
C260	C	1.884470	0.448259	0.663014
H261	H	0.582671	-0.374703	-0.469103
H262	H	0.832671	-0.124703	-0.219103
H263	H	1.082671	0.125297	0.030897
H264	H	1.332671	0.375297	0.280897
H265	H	1.043473	-1.062865	-0.287104
H266	H	1.293473	-0.812865	-0.037104
H267	H	1.543473	-0.562865	0.212896
H268	H	1.793473	-0.312865	0.462896
F269	F	1.030674	-0.532348	-0.274431
F270	F	1.280674	-0.282348	-0.024431
F271	F	1.530674	-0.032348	0.225569
F272	F	1.780674	0.217652	0.475569
F273	F	1.237946	-0.384565	-0.667521
F274	F	1.487946	-0.134565	-0.417521
F275	F	1.737946	0.115435	-0.167521
F276	F	1.987946	0.365435	0.082479
H277	H	1.043368	-0.229109	-0.677814
H278	H	1.293368	0.020891	-0.427814
H279	H	1.543368	0.270891	-0.177814
H280	H	1.793368	0.520891	0.072186
F281	F	1.030901	-0.219004	-1.089639
F282	F	1.280901	0.030996	-0.839639
F283	F	1.530901	0.280996	-0.589639
F284	F	1.780901	0.530996	-0.339639
H285	H	0.433927	-0.229139	-0.287300
H286	H	0.683927	0.020861	-0.037300
H287	H	0.933927	0.270861	0.212700
H288	H	1.183927	0.520861	0.462700
F289	F	1.238019	-0.935730	-0.481956
F290	F	1.488019	-0.685730	-0.231956
F291	F	1.738019	-0.435730	0.018044
F292	F	1.988019	-0.185730	0.268044
F293	F	0.845776	-0.384690	-0.481623
F294	F	1.095776	-0.134690	-0.231623
F295	F	1.345776	0.115310	0.018377
F296	F	1.595776	0.365310	0.268377
H297	H	1.225289	-0.540289	-0.469308
H298	H	1.475289	-0.290289	-0.219308
H299	H	1.725289	-0.040289	0.030692
H300	H	1.975289	0.209711	0.280692
F301	F	1.237893	-0.667165	-0.481897
F302	F	1.487893	-0.417165	-0.231897
F303	F	1.737893	-0.167165	0.018103
F304	F	1.987893	0.082835	0.268103
H305	H	1.225490	-0.374452	-1.079352
H306	H	1.475490	-0.124452	-0.829352
H307	H	1.725490	0.125548	-0.579352
H308	H	1.975490	0.375548	-0.329352
H309	H	1.225468	-0.374482	-0.930625
H310	H	1.475468	-0.124482	-0.680625
H311	H	1.725468	0.125518	-0.430625
H312	H	1.975468	0.375518	-0.180625
H313	H	0.835505	-0.229078	-0.287270
H314	H	1.085505	0.020922	-0.037270
H315	H	1.335505	0.270922	0.212730
H316	H	1.585505	0.520922	0.462730
F317	F	1.030870	-0.935988	-0.274512
F318	F	1.280870	-0.685988	-0.024512
F319	F	1.530870	-0.435988	0.225488
F320	F	1.780870	-0.185988	0.475488
F321	F	1.030820	-0.219085	-0.836785
F322	F	1.280820	0.030915	-0.586785
F323	F	1.530820	0.280915	-0.336785
F324	F	1.780820	0.530915	-0.086785
F325	F	1.238066	-1.070800	-0.481998
F326	F	1.488066	-0.820800	-0.231998
F327	F	1.738066	-0.570800	0.018002
F328	F	1.988066	-0.320800	0.268002
H329	H	0.433953	-0.374717	-0.469129
H330	H	0.683953	-0.124717	-0.219129
H331	H	0.933953	0.125283	0.030871
H332	H	1.183953	0.375283	0.280871
F333	F	0.676550	-0.384717	-0.481631
F334	F	0.926550	-0.134717	-0.231631
F335	F	1.176550	0.115283	0.018369
F336	F	1.426550	0.365283	0.268369
F337	F	0.676525	-0.219077	-0.274741
F338	F	0.926525	0.030923	-0.024741
F339	F	1.176525	0.280923	0.225259
F340	F	1.426525	0.530923	0.475259
F341	F	0.592904	-0.219091	-0.274753
F342	F	0.842904	0.030909	-0.024753
F343	F	1.092904	0.280909	0.225247
F344	F	1.342904	0.530909	0.475247
H345	H	1.145513	-0.742136	-0.506517
H346	H	1.395513	-0.492136	-0.256517
H347	H	1.645513	-0.242136	-0.006517
H348	H	1.895513	0.007864	0.243483
F349	F	1.237977	-0.384529	-0.836750
F350	F	1.487977	-0.134529	-0.586750
F351	F	1.737977	0.115471	-0.336750
F352	F	1.987977	0.365471	-0.086750
H353	H	1.043416	-0.229057	-0.930661
H354	H	1.293416	0.020943	-0.680661
H355	H	1.543416	0.270943	-0.430661
H356	H	1.793416	0.520943	-0.180661
H357	H	1.145566	-0.860849	-0.506542
H358	H	1.395566	-0.610849	-0.256542
H359	H	1.645566	-0.360849	-0.006542
H360	H	1.895566	-0.110849	0.243458
H361	H	1.123265	-0.861009	-0.249887
H362	H	1.373265	-0.611009	0.000113
H363	H	1.623265	-0.361009	0.250113
H364	H	1.873265	-0.111009	0.500113
F365	F	1.121746	-0.734134	-0.232168
F366	F	1.371746	-0.484134	0.017832
F367	F	1.621746	-0.234134	0.267832
F368	F	1.871746	0.015866	0.517832
H369	H	1.043289	-0.659228	-0.287019
H370	H	1.293289	-0.409228	-0.037019
H371	H	1.543289	-0.159228	0.212981
H372	H	1.793289	0.090772	0.462981
