data_functionalizedCrystal
_audit_creation_method	'MofGen! by Chris Wilmer'
_symmetry_space_group_name_H-M	'P1'
_symmetry_Int_Tables_number	1
_symmetry_cell_setting	triclinic
loop_
_symmetry_equiv_pos_as_xyz
  x,y,z
_cell_length_a	12.759401
_cell_length_b	19.076919
_cell_length_c	12.759393
_cell_angle_alpha	92.335790
_cell_angle_beta	89.980324
_cell_angle_gamma	87.669368
loop_
_atom_site_label
_atom_site_type_symbol
_atom_site_fract_x
_atom_site_fract_y
_atom_site_fract_z
Zn1	Zn	1.589336	0.280176	-0.577129
Zn2	Zn	2.089336	0.780176	-0.077129
Zn3	Zn	1.582114	0.397897	-0.394367
Zn4	Zn	2.082114	0.897897	0.105633
Zn5	Zn	1.413633	0.280211	-0.401466
Zn6	Zn	1.913633	0.780211	0.098534
Zn7	Zn	1.406516	0.397845	-0.570011
Zn8	Zn	1.906516	0.897845	-0.070011
O9	O	1.497900	0.339032	-0.485743
O10	O	1.997900	0.839032	0.014257
O11	O	1.735399	0.295799	-0.552893
O12	O	2.235399	0.795799	-0.052893
O13	O	1.559720	0.382322	-0.248285
O14	O	2.059720	0.882322	0.251715
O15	O	1.442941	0.181710	-0.430718
O16	O	1.942941	0.681710	0.069282
O17	O	1.730092	0.382288	-0.418618
O18	O	2.230092	0.882288	0.081382
O19	O	1.572029	0.181684	-0.559777
O20	O	2.072029	0.681684	-0.059777
O21	O	1.435938	0.295859	-0.253501
O22	O	1.935938	0.795859	0.246499
O23	O	1.265668	0.295809	-0.423816
O24	O	1.765668	0.795809	0.076184
O25	O	1.430812	0.382200	-0.717978
O26	O	1.930812	0.882200	-0.217978
O27	O	1.260440	0.382234	-0.547645
O28	O	1.760440	0.882234	-0.047645
O29	O	1.565129	0.295749	-0.723208
O30	O	2.065129	0.795749	-0.223208
O31	O	1.552819	0.496387	-0.411716
O32	O	2.052819	0.996387	0.088284
O33	O	1.423809	0.496349	-0.540761
O34	O	1.923809	0.996349	-0.040761
C35	C	1.224933	0.339020	-0.485729
C36	C	1.724933	0.839020	0.014271
C37	C	1.108156	0.339032	-0.485747
C38	C	1.608156	0.839032	0.014253
C39	C	1.056052	0.294079	-0.555762
C40	C	1.556052	0.794079	-0.055762
C41	C	0.946328	0.294086	-0.555769
C42	C	1.446328	0.794086	-0.055769
C43	C	0.940819	0.384006	-0.415741
C44	C	1.440819	0.884006	0.084259
C45	C	1.050542	0.383995	-0.415730
C46	C	1.550542	0.883995	0.084270
C47	C	1.486787	0.521907	-0.474719
C48	C	1.986787	1.021907	0.025281
C49	C	1.482128	0.600142	-0.470038
C50	C	1.982128	1.100142	0.029962
C51	C	1.547099	0.636823	-0.535087
C52	C	2.047099	1.136823	-0.035087
C53	C	1.542718	0.710332	-0.530691
C54	C	2.042718	1.210332	-0.030691
C55	C	1.473371	0.747160	-0.461239
C56	C	1.973371	1.247160	0.038761
C57	C	1.408393	0.710474	-0.396187
C58	C	1.908393	1.210474	0.103813
C59	C	1.412769	0.636966	-0.400590
C60	C	1.912769	1.136966	0.099410
C61	C	1.453076	0.967014	-0.440866
C62	C	1.953076	1.467014	0.059134
C63	C	1.448706	1.040528	-0.436466
C64	C	1.948706	1.540528	0.063534
C65	C	1.583031	1.040381	-0.570972
C66	C	2.083031	1.540381	-0.070972
C67	C	1.587405	0.966871	-0.575364
C68	C	2.087405	1.466871	-0.075364
C69	C	1.522424	0.930192	-0.510316
C70	C	2.022424	1.430192	-0.010316
N71	N	1.468894	0.822299	-0.456741
N72	N	1.968894	1.322299	0.043259
N73	N	1.526897	0.855054	-0.514820
N74	N	2.026897	1.355054	-0.014820
C75	C	1.771932	0.339045	-0.485758
C76	C	2.271932	0.839045	0.014242
C77	C	1.888708	0.339050	-0.485764
C78	C	2.388708	0.839050	0.014236
C79	C	1.509041	1.155443	-0.496822
C80	C	2.009041	1.655443	0.003178
C81	C	1.513677	1.077209	-0.501516
C82	C	2.013677	1.577209	-0.001516
C83	C	1.497982	0.338965	-0.759781
C84	C	1.997982	0.838965	-0.259781
C85	C	1.498018	0.338936	-0.876559
C86	C	1.998018	0.838936	-0.376559
C87	C	1.567962	0.293914	-0.934146
C88	C	2.067962	0.793914	-0.434146
C89	C	1.567981	0.293883	-1.043872
C90	C	2.067981	0.793883	-0.543872
C91	C	1.428109	0.383904	-1.038414
C92	C	1.928109	0.883904	-0.538414
C93	C	1.428085	0.383930	-0.928690
C94	C	1.928085	0.883930	-0.428690
C95	C	1.497881	0.339049	-0.212775
C96	C	1.997881	0.839049	0.287225
C97	C	1.498061	0.338879	-0.096009
C98	C	1.998061	0.838879	0.403991
H99	H	1.603574	0.606842	-0.591638
H100	H	2.103574	1.106842	-0.091638
Cl101	Cl	1.655924	0.237287	-1.116263
Cl102	Cl	2.155924	0.737287	-0.616263
H103	H	1.102959	0.257465	-0.612771
H104	H	1.602959	0.757465	-0.112771
H105	H	1.400167	0.937156	-0.387899
H106	H	1.900167	1.437156	0.112101
Cl107	Cl	1.361524	1.086825	-0.349145
Cl108	Cl	1.861524	1.586825	0.150855
Cl109	Cl	0.880831	0.237569	-0.643791
Cl110	Cl	1.380831	0.737569	-0.143791
H111	H	0.893897	0.420613	-0.358737
H112	H	1.393897	0.920613	0.141263
Cl113	Cl	1.116049	0.440505	-0.327693
Cl114	Cl	1.616049	0.940505	0.172307
H115	H	1.371175	0.420538	-1.080872
H116	H	1.871175	0.920538	-0.580872
Cl117	Cl	1.340142	0.440530	-0.856289
Cl118	Cl	1.840142	0.940530	-0.356289
H119	H	1.595632	0.740195	-0.583653
H120	H	2.095632	1.240195	-0.083653
Cl121	Cl	1.664712	1.086497	-0.652746
Cl122	Cl	2.164712	1.586497	-0.152746
Cl123	Cl	1.674587	0.920579	-0.662680
Cl124	Cl	2.174587	1.420579	-0.162680
Cl125	Cl	1.321203	0.756772	-0.308886
Cl126	Cl	1.821203	1.256772	0.191114
Cl127	Cl	1.331087	0.590852	-0.318811
Cl128	Cl	1.831087	1.090852	0.181189
Cl129	Cl	1.655872	0.237347	-0.868614
Cl130	Cl	2.155872	0.737347	-0.368614
